/*--------------------------------*- C++ -*----------------------------------*\
  =========                 |
  \\      /  F ield         | OpenFOAM: The Open Source CFD Toolbox
   \\    /   O peration     | Website:  https://openfoam.org
    \\  /    A nd           | Version:  9
     \\/     M anipulation  |
\*---------------------------------------------------------------------------*/
FoamFile
{
    format      ascii;
    class       dictionary;
    location    "constant";
    object      transportProperties;
}
// * * * * * * * * * * * * * * * * * * * * * * * * * * * * * * * * * * * * * //

// Fluid and rock properties
// a: water
// b: oil

mu_a              mu_a [0 0 0 0 0 0 0] 1.0e-3;      // Pa.s

mu_b              mu_b [0 0 0 0 0 0 0] 1.0e-1;      // Pa.s

rho_a              rho_a [0 0 0 0 0 0 0] 1000.0;    // kg/m3

rho_b              rho_b [0 0 0 0 0 0 0] 800.0;     // kg/m3

prst            prst [0 0 0 0 0 0 0] 0.25;          // []

// Gravity
g_vector        g_vector [0 0 0 0 0 0 0] (0 0 0);

// Relative permeability model

relativePermeabilityModel CoreyBrooksExtd;

CoreyBrooks
{
  Sa_min    0.1;
  Sb_min    0.15;
  a_exp     8.0;
  b_exp     3.0;
  kra_max   0.5;
  krb_max   1.0;
}

CoreyBrooksExtd
{
  Sa_min    0.1;
  Sb_min    0.15;
  a_exp     8.0;
  b_exp     3.0;
  kra_max   0.5;
  krb_max   1.0;
}

// Foam model 

foamModel noFoam;
FsurfActive false;

noFoam
{
}

// Capillary pressure model

capillaryPressureModel noCapillaryPressure;

noCapillaryPressure
{
}

// Surfactante concentration transport

surfactantTransportModel noSurfTransp;

noSurfTransp
{
  isothermModel noAdsorption;

  // Adorption isotherms
  noAdsorption
  {
  }
}

// ************************************************************************* //

