/*--------------------------------*- C++ -*----------------------------------*\
  =========                 |
  \\      /  F ield         | OpenFOAM: The Open Source CFD Toolbox
   \\    /   O peration     | Website:  https://openfoam.org
    \\  /    A nd           | Version:  9
     \\/     M anipulation  |
\*---------------------------------------------------------------------------*/
FoamFile
{
    format      ascii;
    class       dictionary;
    location    "constant";
    object      transportProperties;
}
// * * * * * * * * * * * * * * * * * * * * * * * * * * * * * * * * * * * * * //

// a: oil
// b: water

mu_a              mu_a [0 0 0 0 0 0 0] 1.47e-13;    // Pa.s

mu_b              mu_b [0 0 0 0 0 0 0] 2.94e-14;    // Pa.s

rho_a              rho_a [0 0 0 0 0 0 0] 0.7;       // kg/m3

rho_b              rho_b [0 0 0 0 0 0 0] 1.0;       // kg/m3

prst            prst [0 0 0 0 0 0 0] 0.25;          // []

// Gravity
// g_vector        g_vector [0 0 0 0 0 0 0] (-9.81 0 0);
g_vector        g_vector [0 0 0 0 0 0 0] (0 0 0);

// Relative permeability model

relativePermeabilityModel CoreyBrooks;

CoreyBrooks
{
  Sa_min    0.0;
  Sb_min    0.0;
  a_exp     2.0;
  b_exp     2.0;
  kra_max   1.0;
  krb_max   1.0;
}

// Foam model 

foamModel noFoam;

noFoam
{
}

// Capillary pressure model

capillaryPressureModel noCapillaryPressure;

noCapillaryPressure
{
}

// Surfactante concentration transport

surfactantTransportModel noSurfTransp;

noSurfTransp
{
  isothermModel noAdsorption;

  // Adorption isotherms
  noAdsorption
  {
  }
}

// ************************************************************************* //
