/*--------------------------------*- C++ -*----------------------------------*\
  =========                 |
  \\      /  F ield         | OpenFOAM: The Open Source CFD Toolbox
   \\    /   O peration     | Website:  https://openfoam.org
    \\  /    A nd           | Version:  9
     \\/     M anipulation  |
\*---------------------------------------------------------------------------*/
FoamFile
{
    format      ascii;
    class       dictionary;
    location    "constant";
    object      transportProperties;
}
// * * * * * * * * * * * * * * * * * * * * * * * * * * * * * * * * * * * * * //

// a: oil
// b: water

mu_a              mu_a [0 0 0 0 0 0 0] 2.17e-3;    // Pa.s

mu_b              mu_b [0 0 0 0 0 0 0] 0.5e-3;     // Pa.s

rho_a              rho_a [0 0 0 0 0 0 0] 0.8e3; // 0.8e3   // kg/m3

rho_b              rho_b [0 0 0 0 0 0 0] 1.0e3; // 1.0e3   // kg/m3

prst            prst [0 0 0 0 0 0 0] 0.2;          // []

// Gravity
g_vector        g_vector [0 0 0 0 0 0 0] (0 0 0);

// Relative permeability model

relativePermeabilityModel CoreyBrooks;

CoreyBrooks
{
  Sa_min    0.067;
  Sb_min    0.3;
  a_exp     1.56;   // fitted   
  b_exp     7.72;   // fitted
  kra_max   0.8125;
  krb_max   0.5625;
}

// Foam model 

foamModel noFoam;
// FsurfActive true;

noFoam
{}

// Capillary pressure model

capillaryPressureModel CoreyBrooksPC;

CoreyBrooksPC
{
  Spc_irr 0.0;
  Spc_max 1.0;
  pc0     3642.47;
  alpha   2.14;
}

// Surfactante concentration transport

surfactantTransportModel noSurfTransp;

noSurfTransp
{}

// // Adorption isotherm

// isothermModel noAdsorption;

// noAdsorption
// {}

// Surfactante concentration transport and adsorption isotherm

surfactantTransportModel noSurfTransp;

noSurfTransp
{

  isothermModel noAdsorption;

  // Adorption isotherms
  noAdsorption
  {}
}

// ************************************************************************* //
