/*--------------------------------*- C++ -*----------------------------------*\
  =========                 |
  \\      /  F ield         | OpenFOAM: The Open Source CFD Toolbox
   \\    /   O peration     | Website:  https://openfoam.org
    \\  /    A nd           | Version:  9
     \\/     M anipulation  |
\*---------------------------------------------------------------------------*/
FoamFile
{
    format      ascii;
    class       dictionary;
    location    "constant";
    object      transportProperties;
}
// * * * * * * * * * * * * * * * * * * * * * * * * * * * * * * * * * * * * * //

// a: gas
// b: water
// c: oil

mu_a              mu_a [0 0 0 0 0 0 0] 0.02;    // Pa.s

mu_b              mu_b [0 0 0 0 0 0 0] 1.0;    // Pa.s

mu_c              mu_c [0 0 0 0 0 0 0] 4.0;    // Pa.s

rho_a              rho_a [0 0 0 0 0 0 0] 1.0;       // kg/m3

rho_b              rho_b [0 0 0 0 0 0 0] 1.0e3;     // kg/m3

rho_c              rho_c [0 0 0 0 0 0 0] 0.7e3;     // kg/m3

rho_s              rho_s [0 0 0 0 0 0 0] 2.0e3;     // kg/m3

prst            prst [0 0 0 0 0 0 0] 0.3;          // []

// Gravity
g_vector        g_vector [0 0 0 0 0 0 0] (0 0 0);

// Relative permeability model

relativePermeabilityModel Mehrabi;

Mehrabi
{
  Sa_min    0.25;
  Sb_min    0.1;
  Sc_min_1  0.0;
  Sc_min_2  0.3;
  a_exp     2.0;
  b_exp     2.0;
  c_exp     2.0;
  kra_max   1.0;
  krb_max_1 0.8;
  krb_max_2 0.3;
  krc_max   1.0;

  Cr        1e-2;
}

// Foam Model

foamModel MehrabiFoam;

MehrabiFoam
{
  Cr       1e-2;
  MRF      10;
}

// Surfactante concentration transport and adsorption isotherm

surfactantTransportModel Csw;

Csw
{
  rho_s 1;

  isothermModel noAdsorption;

  // Adorption isotherms
  noAdsorption
  {

  }

  Henry
  {
    Kd    0.05;
  }

}


// ************************************************************************* //
