/*--------------------------------*- C++ -*----------------------------------*\
  =========                 |
  \\      /  F ield         | OpenFOAM: The Open Source CFD Toolbox
   \\    /   O peration     | Website:  https://openfoam.org
    \\  /    A nd           | Version:  9
     \\/     M anipulation  |
\*---------------------------------------------------------------------------*/
FoamFile
{
    format      ascii;
    class       dictionary;
    location    "constant";
    object      transportProperties;
}
// * * * * * * * * * * * * * * * * * * * * * * * * * * * * * * * * * * * * * //

mu_a              mu_a [0 0 0 0 0 0 0] 2.07e-5;       // Pa.s  Gas

mu_b              mu_b [0 0 0 0 0 0 0] 0.7e-3;        // Pa.s  Water 

mu_c              mu_c [0 0 0 0 0 0 0] 5.0e-3;        // Pa.s  Oil

rho_a              rho_a [0 0 0 0 0 0 0] 1000.0;    // kg/m3

rho_b              rho_b [0 0 0 0 0 0 0] 1000.0;    // kg/m3

rho_c              rho_c [0 0 0 0 0 0 0] 1000.0;    // kg/m3

prst            prst [0 0 0 0 0 0 0] 0.22;          // []

// Gravity
g_vector        g_vector [0 0 0 0 0 0 0] (0 0 0);

// Relative permeability model

relativePermeabilityModel CoreyBrooksExtd;

CoreyBrooksExtd
{
  Sa_min    0.2;
  Sb_min    0.135;
  Sc_min    0.1;
  a_exp     1.3;
  b_exp     2.46;
  c_exp     2.0;
  kra_max   0.94;
  krb_max   0.713;
  krc_max   0.5;
}

// Foam model 

foamModel STARS;
FshearActive false;
FsurfActive false;
FoilActive true;

STARS
{
  fmmob     643300.497370365;
  SF        0.14827947413706252;
  sfbet     2151.801364283265;
  fmcap     1.54e-4;
  epcap     1.0885659528157074;
  sigma_ba  0.033;
  fmsurf    1.0;
  epsurf    0.0;
  fmoil     0.7534338586150372;
  floil     0.016283996624632837;
  epoil     11.336244263481525;
}

// ************************************************************************* //
