/*--------------------------------*- C++ -*----------------------------------*\
  =========                 |
  \\      /  F ield         | OpenFOAM: The Open Source CFD Toolbox
   \\    /   O peration     | Website:  https://openfoam.org
    \\  /    A nd           | Version:  9
     \\/     M anipulation  |
\*---------------------------------------------------------------------------*/
FoamFile
{
    format      ascii;
    class       dictionary;
    location    "constant";
    object      transportProperties;
}
// * * * * * * * * * * * * * * * * * * * * * * * * * * * * * * * * * * * * * //

// a: oil
// b: water

mu_a              mu_a [0 0 0 0 0 0 0] 2.0e-5;    // Pa.s

mu_b              mu_b [0 0 0 0 0 0 0] 1.05e-3;     // Pa.s

rho_a              rho_a [0 0 0 0 0 0 0] 0.7e3;    // kg/m3

rho_b              rho_b [0 0 0 0 0 0 0] 1.0e3;    // kg/m3

prst            prst [0 0 0 0 0 0 0] 0.2;          // []

// Gravity
// g_vector        g_vector [0 0 0 0 0 0 0] (0 -9.81 0);
g_vector        g_vector [0 0 0 0 0 0 0] (0 0 0);

// Relative permeability model

relativePermeabilityModel CoreyBrooks;

CoreyBrooks
{
  Sa_min    0.293;
  Sb_min    0.4;
  a_exp     0.96;
  b_exp     2.98;
  kra_max   0.04;
  krb_max   0.302;
}

// Foam model 

foamModel STARS;
// foamModel noFoam;

FshearActive true;
nca_model zeng;
FsurfActive true;

STARS
{
  fmmob     170.113;
  // SF        0.45656;
  SF        0.4;
  sfbet     504.143;
  fmcap     8.4e-8;
  epcap     0.52;
  sigma_ba  0.033;
  fmsurf    2.0;
  epsurf    1.0;
}
noFoam
{}

// Capillary pressure model

capillaryPressureModel noCapillaryPressure;

noCapillaryPressure
{
}

// Surfactante concentration transport and adsorption isotherm

surfactantTransportModel CswDiff;

CswDiff
{
  rho_s 2.0e3;
  D 0; // 5e-6;

  isothermModel noAdsorption;

  // Adorption isotherms
  Henry
  {
    Kd    0.05;
  }
  Langmuir
  {
    qo    0.3;
    KL    1.0;
  }
  noAdsorption
  {

  }
}

noSurfTransp
{

  isothermModel noAdsorption;

  // Adorption isotherms
  noAdsorption
  {}
}

// ************************************************************************* //
