/*--------------------------------*- C++ -*----------------------------------*\
  =========                 |
  \\      /  F ield         | OpenFOAM: The Open Source CFD Toolbox
   \\    /   O peration     | Website:  https://openfoam.org
    \\  /    A nd           | Version:  9
     \\/     M anipulation  |
\*---------------------------------------------------------------------------*/
FoamFile
{
    format      ascii;
    class       dictionary;
    location    "constant";
    object      transportProperties;
}
// * * * * * * * * * * * * * * * * * * * * * * * * * * * * * * * * * * * * * //

// a: gas
// b: water

mu_a              mu_a [0 0 0 0 0 0 0] 2.0e-5;      // Pa.s

mu_b              mu_b [0 0 0 0 0 0 0] 1.0e-3;      // Pa.s

rho_a              rho_a [0 0 0 0 0 0 0] 1.0;       // kg/m3

rho_b              rho_b [0 0 0 0 0 0 0] 1.0e3;     // kg/m3

prst            prst [0 0 0 0 0 0 0] 0.25;          // []

// Gravity
g_vector        g_vector [0 0 0 0 0 0 0] (0 0 0);

// Relative permeability model

relativePermeabilityModel CoreyBrooks;

CoreyBrooks
{
  Sa_min    0.18;
  Sb_min    0.2;
  a_exp     1.3;
  b_exp     4.2;
  kra_max   0.94;
  krb_max   0.2;
}

// Foam model 

foamModel ashoori;

ashoori
{
  Kc      1.0; // 0, 0.1, 1, 200
  A       400;
  Cmrf    18500;
  Sw_ast  0.37;
  nMAX    8.0e13;
}

// Capillary pressure model

capillaryPressureModel noCapillaryPressure;

noCapillaryPressure
{
}

// Surfactante concentration transport and adsorption isotherm

surfactantTransportModel noSurfTransp;

noSurfTransp
{

  isothermModel noAdsorption;

  // Adorption isotherms
  noAdsorption
  {

  }
}
// ************************************************************************* //
