/*--------------------------------*- C++ -*----------------------------------*\
  =========                 |
  \\      /  F ield         | OpenFOAM: The Open Source CFD Toolbox
   \\    /   O peration     | Website:  https://openfoam.org
    \\  /    A nd           | Version:  9
     \\/     M anipulation  |
\*---------------------------------------------------------------------------*/
FoamFile
{
    format      ascii;
    class       dictionary;
    location    "constant";
    object      transportProperties;
}
// * * * * * * * * * * * * * * * * * * * * * * * * * * * * * * * * * * * * * //

mu_a              mu_a [0 0 0 0 0 0 0] 1.0e-5;     // Pa.s

mu_b              mu_b [0 0 0 0 0 0 0] 1.0e-3;     // Pa.s

mu_c              mu_c [0 0 0 0 0 0 0] 5.0e-3;    // Pa.s

rho_a              rho_a [0 0 0 0 0 0 0] 1.0e-3;     // 1.0     // kg/m3

rho_b              rho_b [0 0 0 0 0 0 0] 1.0e1; // 1.0e3   // kg/m3

rho_c              rho_c [0 0 0 0 0 0 0] 0.8e1; // 0.8e3   // kg/m3

prst            prst [0 0 0 0 0 0 0] 0.2;       // []

// Gravity
// g_vector        g_vector [0 0 0 0 0 0 0] (0 0 0);
g_vector        g_vector [0 0 0 0 0 0 0] (0 0 -9.81);

// Relative permeability model

relativePermeabilityModel CoreyBrooks;

CoreyBrooks
{
  Sa_min    0.0;
  Sb_min    0.1;
  Sc_min    0.1;
  a_exp     2.0;
  b_exp     2.0;
  c_exp     2.0;
  kra_max   1.0;
  krb_max   1.0;
  krc_max   1.0;
}

// Foam model 

foamModel noFoam;

noFoam
{
  
}

// Surfactante concentration transport and adsorption isotherm

surfactantTransportModel noSurfTransp;

noSurfTransp
{
  isothermModel noAdsorption;
  noAdsorption
  {
    
  }
}

// Capillary pressure model

capillaryPressureModel LeverettLewis;

LeverettLewis
{
  epsilon 1e-2;
}

noCapillaryPressure
{
  
}

// ************************************************************************* //
