/*---------------------------------------------------------------------------*\
  =========                 |
  \\      /  F ield         | OpenFOAM: The Open Source CFD Toolbox
   \\    /   O peration     | Website:  https://openfoam.org
    \\  /    A nd           | Version:  9
     \\/     M anipulation  |
\*---------------------------------------------------------------------------*/
Build  : 9-c96968adf6d8
Exec   : impesFoam_v3
Date   : Oct 22 2024
Time   : 10:41:49
Host   : "anderson-Latitude-3440"
PID    : 13887
I/O    : uncollated
Case   : /home/anderson/OpenFOAM/anderson-9/run/impesFoam_v3/impes_2D_2LayersSeq
nProcs : 1
sigFpe : Enabling floating point exception trapping (FOAM_SIGFPE).
fileModificationChecking : Monitoring run-time modified files using timeStampMaster (fileModificationSkew 10)
allowSystemOperations : Allowing user-supplied system call operations

// * * * * * * * * * * * * * * * * * * * * * * * * * * * * * * * * * * * * * //
Create time

Create mesh for time = 0


SIMPLE: No convergence criteria found

Reading field p

Reading field Sb

Reading transportProperties

Reading/calculating face flux field phi

No fvModels present
Time = 100

Courant Number mean: 5.55556e-05 max: 0.0123333

Calculating p and Sb field

diagonal:  Solving for Sb, Initial residual = 0, Final residual = 0, No Iterations 0
DICPCG:  Solving for p, Initial residual = 1, Final residual = 9.23389e-09, No Iterations 209
ExecutionTime = 0.08 s  ClockTime = 0 s

Time = 200

Courant Number mean: 0.0560529 max: 0.0560529

Calculating p and Sb field

diagonal:  Solving for Sb, Initial residual = 0, Final residual = 0, No Iterations 0
DICPCG:  Solving for p, Initial residual = 0.000417723, Final residual = 9.45865e-09, No Iterations 161
ExecutionTime = 0.11 s  ClockTime = 0 s

Time = 300

Courant Number mean: 0.022233 max: 0.022233

Calculating p and Sb field

diagonal:  Solving for Sb, Initial residual = 0, Final residual = 0, No Iterations 0
DICPCG:  Solving for p, Initial residual = 0.00021081, Final residual = 8.48922e-09, No Iterations 155
ExecutionTime = 0.14 s  ClockTime = 0 s

Time = 400

Courant Number mean: 0.0154614 max: 0.0154614

Calculating p and Sb field

diagonal:  Solving for Sb, Initial residual = 0, Final residual = 0, No Iterations 0
DICPCG:  Solving for p, Initial residual = 0.000105931, Final residual = 9.98099e-09, No Iterations 149
ExecutionTime = 0.16 s  ClockTime = 0 s

Time = 500

Courant Number mean: 0.0130945 max: 0.0130945

Calculating p and Sb field

diagonal:  Solving for Sb, Initial residual = 0, Final residual = 0, No Iterations 0
DICPCG:  Solving for p, Initial residual = 2.49138e-05, Final residual = 9.10747e-09, No Iterations 134
ExecutionTime = 0.24 s  ClockTime = 0 s

Time = 600

Courant Number mean: 0.0126232 max: 0.0126232

Calculating p and Sb field

diagonal:  Solving for Sb, Initial residual = 0, Final residual = 0, No Iterations 0
DICPCG:  Solving for p, Initial residual = 9.02758e-05, Final residual = 9.33157e-09, No Iterations 135
ExecutionTime = 0.26 s  ClockTime = 0 s

Time = 700

Courant Number mean: 0.0130984 max: 0.0130985

Calculating p and Sb field

diagonal:  Solving for Sb, Initial residual = 0, Final residual = 0, No Iterations 0
DICPCG:  Solving for p, Initial residual = 0.000152097, Final residual = 9.86249e-09, No Iterations 143
ExecutionTime = 0.29 s  ClockTime = 0 s

Time = 800

Courant Number mean: 0.0140362 max: 0.0140362

Calculating p and Sb field

diagonal:  Solving for Sb, Initial residual = 0, Final residual = 0, No Iterations 0
DICPCG:  Solving for p, Initial residual = 0.000199857, Final residual = 8.81648e-09, No Iterations 144
ExecutionTime = 0.31 s  ClockTime = 0 s

Time = 900

Courant Number mean: 0.0151655 max: 0.0151655

Calculating p and Sb field

diagonal:  Solving for Sb, Initial residual = 0, Final residual = 0, No Iterations 0
DICPCG:  Solving for p, Initial residual = 0.000241056, Final residual = 8.55066e-09, No Iterations 144
ExecutionTime = 0.34 s  ClockTime = 0 s

Time = 1000

Courant Number mean: 0.0163329 max: 0.0163329

Calculating p and Sb field

diagonal:  Solving for Sb, Initial residual = 0, Final residual = 0, No Iterations 0
DICPCG:  Solving for p, Initial residual = 0.000280634, Final residual = 7.84105e-09, No Iterations 144
ExecutionTime = 0.42 s  ClockTime = 0 s

Time = 1100

Courant Number mean: 0.0174537 max: 0.0174537

Calculating p and Sb field

diagonal:  Solving for Sb, Initial residual = 0, Final residual = 0, No Iterations 0
DICPCG:  Solving for p, Initial residual = 0.000320815, Final residual = 9.42371e-09, No Iterations 143
ExecutionTime = 0.45 s  ClockTime = 0 s

Time = 1200

Courant Number mean: 0.0184846 max: 0.0184846

Calculating p and Sb field

diagonal:  Solving for Sb, Initial residual = 0, Final residual = 0, No Iterations 0
DICPCG:  Solving for p, Initial residual = 0.000356121, Final residual = 9.68116e-09, No Iterations 139
ExecutionTime = 0.47 s  ClockTime = 0 s

Time = 1300

Courant Number mean: 0.0194071 max: 0.0194071

Calculating p and Sb field

diagonal:  Solving for Sb, Initial residual = 0, Final residual = 0, No Iterations 0
DICPCG:  Solving for p, Initial residual = 0.000339789, Final residual = 9.80358e-09, No Iterations 137
ExecutionTime = 0.5 s  ClockTime = 0 s

Time = 1400

Courant Number mean: 0.0202172 max: 0.0202172

Calculating p and Sb field

diagonal:  Solving for Sb, Initial residual = 0, Final residual = 0, No Iterations 0
DICPCG:  Solving for p, Initial residual = 8.88459e-05, Final residual = 8.43156e-09, No Iterations 135
ExecutionTime = 0.52 s  ClockTime = 0 s

Time = 1500

Courant Number mean: 0.020919 max: 0.0209191

Calculating p and Sb field

diagonal:  Solving for Sb, Initial residual = 0, Final residual = 0, No Iterations 0
DICPCG:  Solving for p, Initial residual = 0.000443911, Final residual = 9.76874e-09, No Iterations 132
ExecutionTime = 0.6 s  ClockTime = 1 s

Time = 1600

Courant Number mean: 0.0215211 max: 0.0215212

Calculating p and Sb field

diagonal:  Solving for Sb, Initial residual = 0, Final residual = 0, No Iterations 0
DICPCG:  Solving for p, Initial residual = 0.000481393, Final residual = 8.5311e-09, No Iterations 132
ExecutionTime = 0.62 s  ClockTime = 1 s

Time = 1700

Courant Number mean: 0.0220338 max: 0.0220338

Calculating p and Sb field

diagonal:  Solving for Sb, Initial residual = 0, Final residual = 0, No Iterations 0
DICPCG:  Solving for p, Initial residual = 0.000449193, Final residual = 9.12688e-09, No Iterations 130
ExecutionTime = 0.65 s  ClockTime = 1 s

Time = 1800

Courant Number mean: 0.0224677 max: 0.0224677

Calculating p and Sb field

diagonal:  Solving for Sb, Initial residual = 0, Final residual = 0, No Iterations 0
DICPCG:  Solving for p, Initial residual = 0.000455135, Final residual = 9.98325e-09, No Iterations 129
ExecutionTime = 0.67 s  ClockTime = 1 s

Time = 1900

Courant Number mean: 0.0228334 max: 0.0228334

Calculating p and Sb field

diagonal:  Solving for Sb, Initial residual = 0, Final residual = 0, No Iterations 0
DICPCG:  Solving for p, Initial residual = 0.000436394, Final residual = 9.05944e-09, No Iterations 130
ExecutionTime = 0.69 s  ClockTime = 1 s

Time = 2000

Courant Number mean: 0.0231405 max: 0.0231405

Calculating p and Sb field

diagonal:  Solving for Sb, Initial residual = 0, Final residual = 0, No Iterations 0
DICPCG:  Solving for p, Initial residual = 0.000106931, Final residual = 8.90799e-09, No Iterations 127
ExecutionTime = 0.77 s  ClockTime = 1 s

Time = 2100

Courant Number mean: 0.0233976 max: 0.0233976

Calculating p and Sb field

diagonal:  Solving for Sb, Initial residual = 0, Final residual = 0, No Iterations 0
DICPCG:  Solving for p, Initial residual = 0.000611609, Final residual = 8.57031e-09, No Iterations 125
ExecutionTime = 0.79 s  ClockTime = 1 s

Time = 2200

Courant Number mean: 0.0236124 max: 0.0236124

Calculating p and Sb field

diagonal:  Solving for Sb, Initial residual = 0, Final residual = 0, No Iterations 0
DICPCG:  Solving for p, Initial residual = 0.000537949, Final residual = 8.07979e-09, No Iterations 125
ExecutionTime = 0.81 s  ClockTime = 1 s

Time = 2300

Courant Number mean: 0.0237915 max: 0.0237916

Calculating p and Sb field

diagonal:  Solving for Sb, Initial residual = 0, Final residual = 0, No Iterations 0
DICPCG:  Solving for p, Initial residual = 0.000491461, Final residual = 7.27813e-09, No Iterations 128
ExecutionTime = 0.83 s  ClockTime = 1 s

Time = 2400

Courant Number mean: 0.0239407 max: 0.0239407

Calculating p and Sb field

diagonal:  Solving for Sb, Initial residual = 0, Final residual = 0, No Iterations 0
DICPCG:  Solving for p, Initial residual = 0.000489237, Final residual = 8.72841e-09, No Iterations 129
ExecutionTime = 0.85 s  ClockTime = 1 s

Time = 2500

Courant Number mean: 0.0240647 max: 0.0240648

Calculating p and Sb field

diagonal:  Solving for Sb, Initial residual = 0, Final residual = 0, No Iterations 0
DICPCG:  Solving for p, Initial residual = 0.00035821, Final residual = 8.86282e-09, No Iterations 129
ExecutionTime = 0.93 s  ClockTime = 1 s

Time = 2600

Courant Number mean: 0.0241678 max: 0.0241678

Calculating p and Sb field

diagonal:  Solving for Sb, Initial residual = 0, Final residual = 0, No Iterations 0
DICPCG:  Solving for p, Initial residual = 0.00043578, Final residual = 9.81599e-09, No Iterations 124
ExecutionTime = 0.95 s  ClockTime = 1 s

Time = 2700

Courant Number mean: 0.0242534 max: 0.0242534

Calculating p and Sb field

diagonal:  Solving for Sb, Initial residual = 0, Final residual = 0, No Iterations 0
DICPCG:  Solving for p, Initial residual = 0.000624205, Final residual = 9.75765e-09, No Iterations 121
ExecutionTime = 0.97 s  ClockTime = 1 s

Time = 2800

Courant Number mean: 0.0243244 max: 0.0243244

Calculating p and Sb field

diagonal:  Solving for Sb, Initial residual = 0, Final residual = 0, No Iterations 0
DICPCG:  Solving for p, Initial residual = 0.000518257, Final residual = 9.43351e-09, No Iterations 125
ExecutionTime = 0.99 s  ClockTime = 1 s

Time = 2900

Courant Number mean: 0.0243832 max: 0.0243833

Calculating p and Sb field

diagonal:  Solving for Sb, Initial residual = 0, Final residual = 0, No Iterations 0
DICPCG:  Solving for p, Initial residual = 0.000504152, Final residual = 9.70323e-09, No Iterations 128
ExecutionTime = 1.01 s  ClockTime = 1 s

Time = 3000

Courant Number mean: 0.024432 max: 0.024432

Calculating p and Sb field

diagonal:  Solving for Sb, Initial residual = 0, Final residual = 0, No Iterations 0
DICPCG:  Solving for p, Initial residual = 0.00044543, Final residual = 7.45599e-09, No Iterations 130
ExecutionTime = 1.09 s  ClockTime = 1 s

Time = 3100

Courant Number mean: 0.0244724 max: 0.0244725

Calculating p and Sb field

diagonal:  Solving for Sb, Initial residual = 0, Final residual = 0, No Iterations 0
DICPCG:  Solving for p, Initial residual = 0.000181383, Final residual = 8.4216e-09, No Iterations 118
ExecutionTime = 1.11 s  ClockTime = 1 s

Time = 3200

Courant Number mean: 0.0245059 max: 0.0245059

Calculating p and Sb field

diagonal:  Solving for Sb, Initial residual = 0, Final residual = 0, No Iterations 0
DICPCG:  Solving for p, Initial residual = 0.000691772, Final residual = 8.3177e-09, No Iterations 120
ExecutionTime = 1.13 s  ClockTime = 1 s

Time = 3300

Courant Number mean: 0.0245336 max: 0.0245337

Calculating p and Sb field

diagonal:  Solving for Sb, Initial residual = 0, Final residual = 0, No Iterations 0
DICPCG:  Solving for p, Initial residual = 0.000540826, Final residual = 9.82069e-09, No Iterations 118
ExecutionTime = 1.15 s  ClockTime = 1 s

Time = 3400

Courant Number mean: 0.0245566 max: 0.0245566

Calculating p and Sb field

diagonal:  Solving for Sb, Initial residual = 0, Final residual = 0, No Iterations 0
DICPCG:  Solving for p, Initial residual = 0.000510674, Final residual = 8.76486e-09, No Iterations 128
ExecutionTime = 1.17 s  ClockTime = 1 s

Time = 3500

Courant Number mean: 0.0245756 max: 0.0245756

Calculating p and Sb field

diagonal:  Solving for Sb, Initial residual = 0, Final residual = 0, No Iterations 0
DICPCG:  Solving for p, Initial residual = 0.000481565, Final residual = 8.16314e-09, No Iterations 130
ExecutionTime = 1.25 s  ClockTime = 1 s

Time = 3600

Courant Number mean: 0.0245913 max: 0.0245913

Calculating p and Sb field

diagonal:  Solving for Sb, Initial residual = 0, Final residual = 0, No Iterations 0
DICPCG:  Solving for p, Initial residual = 7.99108e-05, Final residual = 9.51451e-09, No Iterations 116
ExecutionTime = 1.27 s  ClockTime = 1 s

Time = 3700

Courant Number mean: 0.0246043 max: 0.0246044

Calculating p and Sb field

diagonal:  Solving for Sb, Initial residual = 0, Final residual = 0, No Iterations 0
DICPCG:  Solving for p, Initial residual = 0.00071498, Final residual = 9.76432e-09, No Iterations 125
ExecutionTime = 1.29 s  ClockTime = 1 s

Time = 3800

Courant Number mean: 0.0246151 max: 0.0246151

Calculating p and Sb field

diagonal:  Solving for Sb, Initial residual = 0, Final residual = 0, No Iterations 0
DICPCG:  Solving for p, Initial residual = 0.000561561, Final residual = 8.31282e-09, No Iterations 113
ExecutionTime = 1.31 s  ClockTime = 1 s

Time = 3900

Courant Number mean: 0.024624 max: 0.024624

Calculating p and Sb field

diagonal:  Solving for Sb, Initial residual = 0, Final residual = 0, No Iterations 0
DICPCG:  Solving for p, Initial residual = 0.000514341, Final residual = 8.8965e-09, No Iterations 127
ExecutionTime = 1.33 s  ClockTime = 1 s

Time = 4000

Courant Number mean: 0.0246314 max: 0.0246314

Calculating p and Sb field

diagonal:  Solving for Sb, Initial residual = 0, Final residual = 0, No Iterations 0
DICPCG:  Solving for p, Initial residual = 0.00049833, Final residual = 8.48637e-09, No Iterations 130
ExecutionTime = 1.41 s  ClockTime = 1 s

Time = 4100

Courant Number mean: 0.0246375 max: 0.0246375

Calculating p and Sb field

diagonal:  Solving for Sb, Initial residual = 0, Final residual = 0, No Iterations 0
DICPCG:  Solving for p, Initial residual = 0.000218615, Final residual = 9.46047e-09, No Iterations 126
ExecutionTime = 1.43 s  ClockTime = 1 s

Time = 4200

Courant Number mean: 0.0246425 max: 0.0246425

Calculating p and Sb field

diagonal:  Solving for Sb, Initial residual = 0, Final residual = 0, No Iterations 0
DICPCG:  Solving for p, Initial residual = 0.000680008, Final residual = 7.87386e-09, No Iterations 130
ExecutionTime = 1.45 s  ClockTime = 1 s

Time = 4300

Courant Number mean: 0.0246467 max: 0.0246467

Calculating p and Sb field

diagonal:  Solving for Sb, Initial residual = 0, Final residual = 0, No Iterations 0
DICPCG:  Solving for p, Initial residual = 0.000585112, Final residual = 9.27321e-09, No Iterations 109
ExecutionTime = 1.47 s  ClockTime = 1 s

Time = 4400

Courant Number mean: 0.0246501 max: 0.0246502

Calculating p and Sb field

diagonal:  Solving for Sb, Initial residual = 0, Final residual = 0, No Iterations 0
DICPCG:  Solving for p, Initial residual = 0.000518005, Final residual = 9.10703e-09, No Iterations 124
ExecutionTime = 1.49 s  ClockTime = 1 s

Time = 4500

Courant Number mean: 0.024653 max: 0.024653

Calculating p and Sb field

diagonal:  Solving for Sb, Initial residual = 0, Final residual = 0, No Iterations 0
DICPCG:  Solving for p, Initial residual = 0.000506405, Final residual = 8.22929e-09, No Iterations 130
ExecutionTime = 1.57 s  ClockTime = 2 s

Time = 4600

Courant Number mean: 0.0246554 max: 0.0246554

Calculating p and Sb field

diagonal:  Solving for Sb, Initial residual = 0, Final residual = 0, No Iterations 0
DICPCG:  Solving for p, Initial residual = 0.000318535, Final residual = 9.25462e-09, No Iterations 129
ExecutionTime = 1.59 s  ClockTime = 2 s

Time = 4700

Courant Number mean: 0.0246573 max: 0.0246573

Calculating p and Sb field

diagonal:  Solving for Sb, Initial residual = 0, Final residual = 0, No Iterations 0
DICPCG:  Solving for p, Initial residual = 0.000584564, Final residual = 8.21296e-09, No Iterations 130
ExecutionTime = 1.62 s  ClockTime = 2 s

Time = 4800

Courant Number mean: 0.0246589 max: 0.024659

Calculating p and Sb field

diagonal:  Solving for Sb, Initial residual = 0, Final residual = 0, No Iterations 0
DICPCG:  Solving for p, Initial residual = 0.000614911, Final residual = 9.78355e-09, No Iterations 118
ExecutionTime = 1.64 s  ClockTime = 2 s

Time = 4900

Courant Number mean: 0.0246603 max: 0.0246603

Calculating p and Sb field

diagonal:  Solving for Sb, Initial residual = 0, Final residual = 0, No Iterations 0
DICPCG:  Solving for p, Initial residual = 0.000523223, Final residual = 8.90135e-09, No Iterations 123
ExecutionTime = 1.66 s  ClockTime = 2 s

Time = 5000

Courant Number mean: 0.0246614 max: 0.0246614

Calculating p and Sb field

diagonal:  Solving for Sb, Initial residual = 0, Final residual = 0, No Iterations 0
DICPCG:  Solving for p, Initial residual = 0.000510307, Final residual = 7.80623e-09, No Iterations 130
ExecutionTime = 1.74 s  ClockTime = 2 s

Time = 5100

Courant Number mean: 0.0246623 max: 0.0246623

Calculating p and Sb field

diagonal:  Solving for Sb, Initial residual = 0, Final residual = 0, No Iterations 0
DICPCG:  Solving for p, Initial residual = 0.000388467, Final residual = 8.95053e-09, No Iterations 130
ExecutionTime = 1.76 s  ClockTime = 2 s

Time = 5200

Courant Number mean: 0.0246631 max: 0.0246631

Calculating p and Sb field

diagonal:  Solving for Sb, Initial residual = 0, Final residual = 0, No Iterations 0
DICPCG:  Solving for p, Initial residual = 0.000440438, Final residual = 9.06289e-09, No Iterations 129
ExecutionTime = 1.78 s  ClockTime = 2 s

Time = 5300

Courant Number mean: 0.0246637 max: 0.0246637

Calculating p and Sb field

diagonal:  Solving for Sb, Initial residual = 0, Final residual = 0, No Iterations 0
DICPCG:  Solving for p, Initial residual = 0.000651075, Final residual = 9.24021e-09, No Iterations 124
ExecutionTime = 1.81 s  ClockTime = 2 s

Time = 5400

Courant Number mean: 0.0246642 max: 0.0246642

Calculating p and Sb field

diagonal:  Solving for Sb, Initial residual = 0, Final residual = 0, No Iterations 0
DICPCG:  Solving for p, Initial residual = 0.000530471, Final residual = 9.47378e-09, No Iterations 120
ExecutionTime = 1.83 s  ClockTime = 2 s

Time = 5500

Courant Number mean: 0.0246646 max: 0.0246647

Calculating p and Sb field

diagonal:  Solving for Sb, Initial residual = 0, Final residual = 0, No Iterations 0
DICPCG:  Solving for p, Initial residual = 0.000512126, Final residual = 9.40842e-09, No Iterations 129
ExecutionTime = 1.91 s  ClockTime = 2 s

Time = 5600

Courant Number mean: 0.024665 max: 0.024665

Calculating p and Sb field

diagonal:  Solving for Sb, Initial residual = 0, Final residual = 0, No Iterations 0
DICPCG:  Solving for p, Initial residual = 0.00043591, Final residual = 9.43106e-09, No Iterations 130
ExecutionTime = 1.93 s  ClockTime = 2 s

Time = 5700

Courant Number mean: 0.0246653 max: 0.0246653

Calculating p and Sb field

diagonal:  Solving for Sb, Initial residual = 0, Final residual = 0, No Iterations 0
DICPCG:  Solving for p, Initial residual = 0.000270397, Final residual = 7.87814e-09, No Iterations 128
ExecutionTime = 1.95 s  ClockTime = 2 s

Time = 5800

Courant Number mean: 0.0246655 max: 0.0246655

Calculating p and Sb field

diagonal:  Solving for Sb, Initial residual = 0, Final residual = 0, No Iterations 0
DICPCG:  Solving for p, Initial residual = 0.000688565, Final residual = 9.43496e-09, No Iterations 128
ExecutionTime = 1.97 s  ClockTime = 2 s

Time = 5900

Courant Number mean: 0.0246657 max: 0.0246657

Calculating p and Sb field

diagonal:  Solving for Sb, Initial residual = 0, Final residual = 0, No Iterations 0
DICPCG:  Solving for p, Initial residual = 0.0005396, Final residual = 8.95641e-09, No Iterations 118
ExecutionTime = 1.99 s  ClockTime = 2 s

Time = 6000

Courant Number mean: 0.0246659 max: 0.0246659

Calculating p and Sb field

diagonal:  Solving for Sb, Initial residual = 0, Final residual = 0, No Iterations 0
DICPCG:  Solving for p, Initial residual = 0.000512839, Final residual = 8.06967e-09, No Iterations 129
ExecutionTime = 2.07 s  ClockTime = 2 s

Time = 6100

Courant Number mean: 0.024666 max: 0.024666

Calculating p and Sb field

diagonal:  Solving for Sb, Initial residual = 0, Final residual = 0, No Iterations 0
DICPCG:  Solving for p, Initial residual = 0.000466861, Final residual = 9.30286e-09, No Iterations 130
ExecutionTime = 2.1 s  ClockTime = 2 s

Time = 6200

Courant Number mean: 0.0246661 max: 0.0246662

Calculating p and Sb field

diagonal:  Solving for Sb, Initial residual = 0, Final residual = 0, No Iterations 0
DICPCG:  Solving for p, Initial residual = 9.92821e-05, Final residual = 8.59782e-09, No Iterations 117
ExecutionTime = 2.12 s  ClockTime = 2 s

Time = 6300

Courant Number mean: 0.0246662 max: 0.0246662

Calculating p and Sb field

diagonal:  Solving for Sb, Initial residual = 0, Final residual = 0, No Iterations 0
DICPCG:  Solving for p, Initial residual = 0.000716076, Final residual = 8.87249e-09, No Iterations 129
ExecutionTime = 2.14 s  ClockTime = 2 s

Time = 6400

Courant Number mean: 0.0246663 max: 0.0246663

Calculating p and Sb field

diagonal:  Solving for Sb, Initial residual = 0, Final residual = 0, No Iterations 0
DICPCG:  Solving for p, Initial residual = 0.000550676, Final residual = 8.55158e-09, No Iterations 116
ExecutionTime = 2.16 s  ClockTime = 2 s

Time = 6500

Courant Number mean: 0.0246664 max: 0.0246664

Calculating p and Sb field

diagonal:  Solving for Sb, Initial residual = 0, Final residual = 0, No Iterations 0
DICPCG:  Solving for p, Initial residual = 0.00051308, Final residual = 9.51885e-09, No Iterations 128
ExecutionTime = 2.24 s  ClockTime = 2 s

Time = 6600

Courant Number mean: 0.0246664 max: 0.0246664

Calculating p and Sb field

diagonal:  Solving for Sb, Initial residual = 0, Final residual = 0, No Iterations 0
DICPCG:  Solving for p, Initial residual = 0.000486024, Final residual = 9.98481e-09, No Iterations 130
ExecutionTime = 2.26 s  ClockTime = 2 s

Time = 6700

Courant Number mean: 0.0246665 max: 0.0246665

Calculating p and Sb field

diagonal:  Solving for Sb, Initial residual = 0, Final residual = 0, No Iterations 0
DICPCG:  Solving for p, Initial residual = 0.000107671, Final residual = 9.90574e-09, No Iterations 118
ExecutionTime = 2.28 s  ClockTime = 2 s

Time = 6800

Courant Number mean: 0.0246665 max: 0.0246665

Calculating p and Sb field

diagonal:  Solving for Sb, Initial residual = 0, Final residual = 0, No Iterations 0
DICPCG:  Solving for p, Initial residual = 0.000717145, Final residual = 9.97903e-09, No Iterations 129
ExecutionTime = 2.31 s  ClockTime = 2 s

Time = 6900

Courant Number mean: 0.0246665 max: 0.0246666

Calculating p and Sb field

diagonal:  Solving for Sb, Initial residual = 0, Final residual = 0, No Iterations 0
DICPCG:  Solving for p, Initial residual = 0.000564774, Final residual = 9.98902e-09, No Iterations 110
ExecutionTime = 2.33 s  ClockTime = 2 s

Time = 7000

Courant Number mean: 0.0246666 max: 0.0246666

Calculating p and Sb field

diagonal:  Solving for Sb, Initial residual = 0, Final residual = 0, No Iterations 0
DICPCG:  Solving for p, Initial residual = 0.000513612, Final residual = 7.92943e-09, No Iterations 128
ExecutionTime = 2.4 s  ClockTime = 2 s

Time = 7100

Courant Number mean: 0.0246666 max: 0.0246666

Calculating p and Sb field

diagonal:  Solving for Sb, Initial residual = 0, Final residual = 0, No Iterations 0
DICPCG:  Solving for p, Initial residual = 0.000497096, Final residual = 8.77465e-09, No Iterations 132
ExecutionTime = 2.43 s  ClockTime = 2 s

Time = 7200

Courant Number mean: 0.0246666 max: 0.0246666

Calculating p and Sb field

diagonal:  Solving for Sb, Initial residual = 0, Final residual = 0, No Iterations 0
DICPCG:  Solving for p, Initial residual = 0.000224921, Final residual = 7.93042e-09, No Iterations 128
ExecutionTime = 2.45 s  ClockTime = 2 s

Time = 7300

Courant Number mean: 0.0246666 max: 0.0246666

Calculating p and Sb field

diagonal:  Solving for Sb, Initial residual = 0, Final residual = 0, No Iterations 0
DICPCG:  Solving for p, Initial residual = 0.000675244, Final residual = 9.41108e-09, No Iterations 131
ExecutionTime = 2.47 s  ClockTime = 2 s

Time = 7400

Courant Number mean: 0.0246666 max: 0.0246666

Calculating p and Sb field

diagonal:  Solving for Sb, Initial residual = 0, Final residual = 0, No Iterations 0
DICPCG:  Solving for p, Initial residual = 0.000583985, Final residual = 9.57605e-09, No Iterations 115
ExecutionTime = 2.49 s  ClockTime = 2 s

Time = 7500

Courant Number mean: 0.0246666 max: 0.0246667

Calculating p and Sb field

diagonal:  Solving for Sb, Initial residual = 0, Final residual = 0, No Iterations 0
DICPCG:  Solving for p, Initial residual = 0.000515366, Final residual = 8.91591e-09, No Iterations 127
ExecutionTime = 2.57 s  ClockTime = 3 s

Time = 7600

Courant Number mean: 0.0246666 max: 0.0246667

Calculating p and Sb field

diagonal:  Solving for Sb, Initial residual = 0, Final residual = 0, No Iterations 0
DICPCG:  Solving for p, Initial residual = 0.000502983, Final residual = 9.91744e-09, No Iterations 131
ExecutionTime = 2.59 s  ClockTime = 3 s

Time = 7700

Courant Number mean: 0.0246666 max: 0.0246667

Calculating p and Sb field

diagonal:  Solving for Sb, Initial residual = 0, Final residual = 0, No Iterations 0
DICPCG:  Solving for p, Initial residual = 0.000315845, Final residual = 9.73263e-09, No Iterations 129
ExecutionTime = 2.61 s  ClockTime = 3 s

Time = 7800

Courant Number mean: 0.0246666 max: 0.0246667

Calculating p and Sb field

diagonal:  Solving for Sb, Initial residual = 0, Final residual = 0, No Iterations 0
DICPCG:  Solving for p, Initial residual = 0.000582057, Final residual = 9.91748e-09, No Iterations 131
ExecutionTime = 2.64 s  ClockTime = 3 s

Time = 7900

Courant Number mean: 0.0246666 max: 0.0246667

Calculating p and Sb field

diagonal:  Solving for Sb, Initial residual = 0, Final residual = 0, No Iterations 0
DICPCG:  Solving for p, Initial residual = 0.000610281, Final residual = 8.6967e-09, No Iterations 122
ExecutionTime = 2.66 s  ClockTime = 3 s

Time = 8000

Courant Number mean: 0.0246667 max: 0.0246667

Calculating p and Sb field

diagonal:  Solving for Sb, Initial residual = 0, Final residual = 0, No Iterations 0
DICPCG:  Solving for p, Initial residual = 0.00051912, Final residual = 9.41094e-09, No Iterations 126
ExecutionTime = 2.73 s  ClockTime = 3 s

Time = 8100

Courant Number mean: 0.0246667 max: 0.0246667

Calculating p and Sb field

diagonal:  Solving for Sb, Initial residual = 0, Final residual = 0, No Iterations 0
DICPCG:  Solving for p, Initial residual = 0.000505812, Final residual = 8.78036e-09, No Iterations 131
ExecutionTime = 2.76 s  ClockTime = 3 s

Time = 8200

Courant Number mean: 0.0246667 max: 0.0246667

Calculating p and Sb field

diagonal:  Solving for Sb, Initial residual = 0, Final residual = 0, No Iterations 0
DICPCG:  Solving for p, Initial residual = 0.000382391, Final residual = 9.74151e-09, No Iterations 131
ExecutionTime = 2.78 s  ClockTime = 3 s

Time = 8300

Courant Number mean: 0.0246667 max: 0.0246667

Calculating p and Sb field

diagonal:  Solving for Sb, Initial residual = 0, Final residual = 0, No Iterations 0
DICPCG:  Solving for p, Initial residual = 0.000443646, Final residual = 9.33009e-09, No Iterations 130
ExecutionTime = 2.8 s  ClockTime = 3 s

Time = 8400

Courant Number mean: 0.0246667 max: 0.0246667

Calculating p and Sb field

diagonal:  Solving for Sb, Initial residual = 0, Final residual = 0, No Iterations 0
DICPCG:  Solving for p, Initial residual = 0.000643455, Final residual = 9.68151e-09, No Iterations 126
ExecutionTime = 2.82 s  ClockTime = 3 s

Time = 8500

Courant Number mean: 0.0246667 max: 0.0246667

Calculating p and Sb field

diagonal:  Solving for Sb, Initial residual = 0, Final residual = 0, No Iterations 0
DICPCG:  Solving for p, Initial residual = 0.000525119, Final residual = 8.30397e-09, No Iterations 125
ExecutionTime = 2.9 s  ClockTime = 3 s

Time = 8600

Courant Number mean: 0.0246667 max: 0.0246667

Calculating p and Sb field

diagonal:  Solving for Sb, Initial residual = 0, Final residual = 0, No Iterations 0
DICPCG:  Solving for p, Initial residual = 0.000506934, Final residual = 9.3078e-09, No Iterations 130
ExecutionTime = 2.92 s  ClockTime = 3 s

Time = 8700

Courant Number mean: 0.0246667 max: 0.0246667

Calculating p and Sb field

diagonal:  Solving for Sb, Initial residual = 0, Final residual = 0, No Iterations 0
DICPCG:  Solving for p, Initial residual = 0.000428739, Final residual = 8.12038e-09, No Iterations 133
ExecutionTime = 2.94 s  ClockTime = 3 s

Time = 8800

Courant Number mean: 0.0246667 max: 0.0246667

Calculating p and Sb field

diagonal:  Solving for Sb, Initial residual = 0, Final residual = 0, No Iterations 0
DICPCG:  Solving for p, Initial residual = 0.000278869, Final residual = 8.86005e-09, No Iterations 128
ExecutionTime = 2.96 s  ClockTime = 3 s

Time = 8900

Courant Number mean: 0.0246667 max: 0.0246667

Calculating p and Sb field

diagonal:  Solving for Sb, Initial residual = 0, Final residual = 0, No Iterations 0
DICPCG:  Solving for p, Initial residual = 0.000678874, Final residual = 9.79154e-09, No Iterations 128
ExecutionTime = 2.99 s  ClockTime = 3 s

Time = 9000

Courant Number mean: 0.0246667 max: 0.0246667

Calculating p and Sb field

diagonal:  Solving for Sb, Initial residual = 0, Final residual = 0, No Iterations 0
DICPCG:  Solving for p, Initial residual = 0.000533147, Final residual = 9.24082e-09, No Iterations 123
ExecutionTime = 3.07 s  ClockTime = 3 s

Time = 9100

Courant Number mean: 0.0246667 max: 0.0246667

Calculating p and Sb field

diagonal:  Solving for Sb, Initial residual = 0, Final residual = 0, No Iterations 0
DICPCG:  Solving for p, Initial residual = 0.000507098, Final residual = 8.40726e-09, No Iterations 130
ExecutionTime = 3.09 s  ClockTime = 3 s

Time = 9200

Courant Number mean: 0.0246667 max: 0.0246667

Calculating p and Sb field

diagonal:  Solving for Sb, Initial residual = 0, Final residual = 0, No Iterations 0
DICPCG:  Solving for p, Initial residual = 0.000459438, Final residual = 9.6961e-09, No Iterations 132
ExecutionTime = 3.12 s  ClockTime = 3 s

Time = 9300

Courant Number mean: 0.0246667 max: 0.0246667

Calculating p and Sb field

diagonal:  Solving for Sb, Initial residual = 0, Final residual = 0, No Iterations 0
DICPCG:  Solving for p, Initial residual = 0.000110946, Final residual = 9.76061e-09, No Iterations 118
ExecutionTime = 3.14 s  ClockTime = 3 s

Time = 9400

Courant Number mean: 0.0246667 max: 0.0246667

Calculating p and Sb field

diagonal:  Solving for Sb, Initial residual = 0, Final residual = 0, No Iterations 0
DICPCG:  Solving for p, Initial residual = 0.000705978, Final residual = 9.12786e-09, No Iterations 130
ExecutionTime = 3.16 s  ClockTime = 3 s

Time = 9500

Courant Number mean: 0.0246667 max: 0.0246667

Calculating p and Sb field

diagonal:  Solving for Sb, Initial residual = 0, Final residual = 0, No Iterations 0
DICPCG:  Solving for p, Initial residual = 0.00054317, Final residual = 7.70548e-09, No Iterations 118
ExecutionTime = 3.24 s  ClockTime = 3 s

Time = 9600

Courant Number mean: 0.0246667 max: 0.0246667

Calculating p and Sb field

diagonal:  Solving for Sb, Initial residual = 0, Final residual = 0, No Iterations 0
DICPCG:  Solving for p, Initial residual = 0.000506835, Final residual = 8.72409e-09, No Iterations 129
ExecutionTime = 3.26 s  ClockTime = 3 s

Time = 9700

Courant Number mean: 0.0246667 max: 0.0246667

Calculating p and Sb field

diagonal:  Solving for Sb, Initial residual = 0, Final residual = 0, No Iterations 0
DICPCG:  Solving for p, Initial residual = 0.000478585, Final residual = 9.52393e-09, No Iterations 132
ExecutionTime = 3.28 s  ClockTime = 3 s

Time = 9800

Courant Number mean: 0.0246667 max: 0.0246667

Calculating p and Sb field

diagonal:  Solving for Sb, Initial residual = 0, Final residual = 0, No Iterations 0
DICPCG:  Solving for p, Initial residual = 9.49971e-05, Final residual = 9.93877e-09, No Iterations 119
ExecutionTime = 3.3 s  ClockTime = 3 s

Time = 9900

Courant Number mean: 0.0246667 max: 0.0246667

Calculating p and Sb field

diagonal:  Solving for Sb, Initial residual = 0, Final residual = 0, No Iterations 0
DICPCG:  Solving for p, Initial residual = 0.000708965, Final residual = 9.41003e-09, No Iterations 131
ExecutionTime = 3.32 s  ClockTime = 3 s

Time = 10000

Courant Number mean: 0.0246667 max: 0.0246667

Calculating p and Sb field

diagonal:  Solving for Sb, Initial residual = 0, Final residual = 0, No Iterations 0
DICPCG:  Solving for p, Initial residual = 0.000556097, Final residual = 8.91143e-09, No Iterations 111
ExecutionTime = 3.4 s  ClockTime = 3 s

Time = 10100

Courant Number mean: 0.0246667 max: 0.0246667

Calculating p and Sb field

diagonal:  Solving for Sb, Initial residual = 0, Final residual = 0, No Iterations 0
DICPCG:  Solving for p, Initial residual = 0.000506833, Final residual = 9.93153e-09, No Iterations 128
ExecutionTime = 3.43 s  ClockTime = 3 s

Time = 10200

Courant Number mean: 0.0246667 max: 0.0246667

Calculating p and Sb field

diagonal:  Solving for Sb, Initial residual = 0, Final residual = 0, No Iterations 0
DICPCG:  Solving for p, Initial residual = 0.000489639, Final residual = 9.03266e-09, No Iterations 132
ExecutionTime = 3.45 s  ClockTime = 3 s

Time = 10300

Courant Number mean: 0.0246667 max: 0.0246667

Calculating p and Sb field

diagonal:  Solving for Sb, Initial residual = 0, Final residual = 0, No Iterations 0
DICPCG:  Solving for p, Initial residual = 0.000212245, Final residual = 9.49957e-09, No Iterations 128
ExecutionTime = 3.47 s  ClockTime = 3 s

Time = 10400

Courant Number mean: 0.0246667 max: 0.0246667

Calculating p and Sb field

diagonal:  Solving for Sb, Initial residual = 0, Final residual = 0, No Iterations 0
DICPCG:  Solving for p, Initial residual = 0.000671334, Final residual = 9.88215e-09, No Iterations 131
ExecutionTime = 3.49 s  ClockTime = 3 s

Time = 10500

Courant Number mean: 0.0246667 max: 0.0246667

Calculating p and Sb field

diagonal:  Solving for Sb, Initial residual = 0, Final residual = 0, No Iterations 0
DICPCG:  Solving for p, Initial residual = 0.000573873, Final residual = 7.90559e-09, No Iterations 116
ExecutionTime = 3.57 s  ClockTime = 4 s

Time = 10600

Courant Number mean: 0.0246667 max: 0.0246667

Calculating p and Sb field

diagonal:  Solving for Sb, Initial residual = 0, Final residual = 0, No Iterations 0
DICPCG:  Solving for p, Initial residual = 0.000507973, Final residual = 9.84413e-09, No Iterations 127
ExecutionTime = 3.59 s  ClockTime = 4 s

Time = 10700

Courant Number mean: 0.0246667 max: 0.0246667

Calculating p and Sb field

diagonal:  Solving for Sb, Initial residual = 0, Final residual = 0, No Iterations 0
DICPCG:  Solving for p, Initial residual = 0.000495414, Final residual = 9.32521e-09, No Iterations 131
ExecutionTime = 3.61 s  ClockTime = 4 s

Time = 10800

Courant Number mean: 0.0246667 max: 0.0246667

Calculating p and Sb field

diagonal:  Solving for Sb, Initial residual = 0, Final residual = 0, No Iterations 0
DICPCG:  Solving for p, Initial residual = 0.000303777, Final residual = 7.60173e-09, No Iterations 131
ExecutionTime = 3.63 s  ClockTime = 4 s

Time = 10900

Courant Number mean: 0.0246667 max: 0.0246667

Calculating p and Sb field

diagonal:  Solving for Sb, Initial residual = 0, Final residual = 0, No Iterations 0
DICPCG:  Solving for p, Initial residual = 0.000583817, Final residual = 9.28674e-09, No Iterations 131
ExecutionTime = 3.65 s  ClockTime = 4 s

Time = 11000

Courant Number mean: 0.0246667 max: 0.0246667

Calculating p and Sb field

diagonal:  Solving for Sb, Initial residual = 0, Final residual = 0, No Iterations 0
DICPCG:  Solving for p, Initial residual = 0.000598481, Final residual = 9.94655e-09, No Iterations 123
ExecutionTime = 3.73 s  ClockTime = 4 s

Time = 11100

Courant Number mean: 0.0246667 max: 0.0246667

Calculating p and Sb field

diagonal:  Solving for Sb, Initial residual = 0, Final residual = 0, No Iterations 0
DICPCG:  Solving for p, Initial residual = 0.00051104, Final residual = 8.78716e-09, No Iterations 126
ExecutionTime = 3.75 s  ClockTime = 4 s

Time = 11200

Courant Number mean: 0.0246667 max: 0.0246667

Calculating p and Sb field

diagonal:  Solving for Sb, Initial residual = 0, Final residual = 0, No Iterations 0
DICPCG:  Solving for p, Initial residual = 0.000498039, Final residual = 8.58957e-09, No Iterations 131
ExecutionTime = 3.77 s  ClockTime = 4 s

Time = 11300

Courant Number mean: 0.0246667 max: 0.0246667

Calculating p and Sb field

diagonal:  Solving for Sb, Initial residual = 0, Final residual = 0, No Iterations 0
DICPCG:  Solving for p, Initial residual = 0.000371072, Final residual = 9.36518e-09, No Iterations 131
ExecutionTime = 3.79 s  ClockTime = 4 s

Time = 11400

Courant Number mean: 0.0246667 max: 0.0246667

Calculating p and Sb field

diagonal:  Solving for Sb, Initial residual = 0, Final residual = 0, No Iterations 0
DICPCG:  Solving for p, Initial residual = 0.00045094, Final residual = 9.59107e-09, No Iterations 130
ExecutionTime = 3.82 s  ClockTime = 4 s

Time = 11500

Courant Number mean: 0.0246667 max: 0.0246667

Calculating p and Sb field

diagonal:  Solving for Sb, Initial residual = 0, Final residual = 0, No Iterations 0
DICPCG:  Solving for p, Initial residual = 0.000629991, Final residual = 8.77856e-09, No Iterations 126
ExecutionTime = 3.89 s  ClockTime = 4 s

Time = 11600

Courant Number mean: 0.0246667 max: 0.0246667

Calculating p and Sb field

diagonal:  Solving for Sb, Initial residual = 0, Final residual = 0, No Iterations 0
DICPCG:  Solving for p, Initial residual = 0.000516315, Final residual = 8.84808e-09, No Iterations 125
ExecutionTime = 3.91 s  ClockTime = 4 s

Time = 11700

Courant Number mean: 0.0246667 max: 0.0246667

Calculating p and Sb field

diagonal:  Solving for Sb, Initial residual = 0, Final residual = 0, No Iterations 0
DICPCG:  Solving for p, Initial residual = 0.000498896, Final residual = 9.91784e-09, No Iterations 130
ExecutionTime = 3.94 s  ClockTime = 4 s

Time = 11800

Courant Number mean: 0.0246667 max: 0.0246668

Calculating p and Sb field

diagonal:  Solving for Sb, Initial residual = 0, Final residual = 0, No Iterations 0
DICPCG:  Solving for p, Initial residual = 0.000418079, Final residual = 9.49612e-09, No Iterations 133
ExecutionTime = 3.96 s  ClockTime = 4 s

Time = 11900

Courant Number mean: 0.0246667 max: 0.0246667

Calculating p and Sb field

diagonal:  Solving for Sb, Initial residual = 0, Final residual = 0, No Iterations 0
DICPCG:  Solving for p, Initial residual = 0.000290279, Final residual = 8.71436e-09, No Iterations 129
ExecutionTime = 3.98 s  ClockTime = 4 s

Time = 12000

Courant Number mean: 0.0246667 max: 0.0246668

Calculating p and Sb field

diagonal:  Solving for Sb, Initial residual = 0, Final residual = 0, No Iterations 0
DICPCG:  Solving for p, Initial residual = 0.00066434, Final residual = 8.95537e-09, No Iterations 129
ExecutionTime = 4.06 s  ClockTime = 4 s

Time = 12100

Courant Number mean: 0.0246667 max: 0.0246667

Calculating p and Sb field

diagonal:  Solving for Sb, Initial residual = 0, Final residual = 0, No Iterations 0
DICPCG:  Solving for p, Initial residual = 0.000523607, Final residual = 9.1974e-09, No Iterations 124
ExecutionTime = 4.08 s  ClockTime = 4 s

Time = 12200

Courant Number mean: 0.0246667 max: 0.0246668

Calculating p and Sb field

diagonal:  Solving for Sb, Initial residual = 0, Final residual = 0, No Iterations 0
DICPCG:  Solving for p, Initial residual = 0.000498759, Final residual = 8.58909e-09, No Iterations 130
ExecutionTime = 4.11 s  ClockTime = 4 s

Time = 12300

Courant Number mean: 0.0246667 max: 0.0246668

Calculating p and Sb field

diagonal:  Solving for Sb, Initial residual = 0, Final residual = 0, No Iterations 0
DICPCG:  Solving for p, Initial residual = 0.000449263, Final residual = 8.59324e-09, No Iterations 134
ExecutionTime = 4.13 s  ClockTime = 4 s

Time = 12400

Courant Number mean: 0.0246667 max: 0.0246667

Calculating p and Sb field

diagonal:  Solving for Sb, Initial residual = 0, Final residual = 0, No Iterations 0
DICPCG:  Solving for p, Initial residual = 0.000124597, Final residual = 8.79195e-09, No Iterations 124
ExecutionTime = 4.15 s  ClockTime = 4 s

Time = 12500

Courant Number mean: 0.0246667 max: 0.0246668

Calculating p and Sb field

diagonal:  Solving for Sb, Initial residual = 0, Final residual = 0, No Iterations 0
DICPCG:  Solving for p, Initial residual = 0.000691744, Final residual = 9.24958e-09, No Iterations 130
ExecutionTime = 4.22 s  ClockTime = 4 s

Time = 12600

Courant Number mean: 0.0246667 max: 0.0246667

Calculating p and Sb field

diagonal:  Solving for Sb, Initial residual = 0, Final residual = 0, No Iterations 0
DICPCG:  Solving for p, Initial residual = 0.000532827, Final residual = 9.83302e-09, No Iterations 117
ExecutionTime = 4.25 s  ClockTime = 4 s

Time = 12700

Courant Number mean: 0.0246667 max: 0.0246668

Calculating p and Sb field

diagonal:  Solving for Sb, Initial residual = 0, Final residual = 0, No Iterations 0
DICPCG:  Solving for p, Initial residual = 0.000498154, Final residual = 9.3167e-09, No Iterations 129
ExecutionTime = 4.27 s  ClockTime = 4 s

Time = 12800

Courant Number mean: 0.0246667 max: 0.0246668

Calculating p and Sb field

diagonal:  Solving for Sb, Initial residual = 0, Final residual = 0, No Iterations 0
DICPCG:  Solving for p, Initial residual = 0.000468714, Final residual = 8.42911e-09, No Iterations 134
ExecutionTime = 4.29 s  ClockTime = 4 s

Time = 12900

Courant Number mean: 0.0246667 max: 0.0246668

Calculating p and Sb field

diagonal:  Solving for Sb, Initial residual = 0, Final residual = 0, No Iterations 0
DICPCG:  Solving for p, Initial residual = 8.07236e-05, Final residual = 9.34998e-09, No Iterations 118
ExecutionTime = 4.31 s  ClockTime = 4 s

Time = 13000

Courant Number mean: 0.0246667 max: 0.0246668

Calculating p and Sb field

diagonal:  Solving for Sb, Initial residual = 0, Final residual = 0, No Iterations 0
DICPCG:  Solving for p, Initial residual = 0.000697114, Final residual = 9.62271e-09, No Iterations 131
ExecutionTime = 4.39 s  ClockTime = 4 s

Time = 13100

Courant Number mean: 0.0246667 max: 0.0246667

Calculating p and Sb field

diagonal:  Solving for Sb, Initial residual = 0, Final residual = 0, No Iterations 0
DICPCG:  Solving for p, Initial residual = 0.000544746, Final residual = 9.63096e-09, No Iterations 111
ExecutionTime = 4.4 s  ClockTime = 4 s

Time = 13200

Courant Number mean: 0.0246667 max: 0.0246668

Calculating p and Sb field

diagonal:  Solving for Sb, Initial residual = 0, Final residual = 0, No Iterations 0
DICPCG:  Solving for p, Initial residual = 0.000497728, Final residual = 8.43115e-09, No Iterations 129
ExecutionTime = 4.43 s  ClockTime = 4 s

Time = 13300

Courant Number mean: 0.0246667 max: 0.0246668

Calculating p and Sb field

diagonal:  Solving for Sb, Initial residual = 0, Final residual = 0, No Iterations 0
DICPCG:  Solving for p, Initial residual = 0.000479894, Final residual = 8.50728e-09, No Iterations 134
ExecutionTime = 4.45 s  ClockTime = 4 s

Time = 13400

Courant Number mean: 0.0246667 max: 0.0246668

Calculating p and Sb field

diagonal:  Solving for Sb, Initial residual = 0, Final residual = 0, No Iterations 0
DICPCG:  Solving for p, Initial residual = 0.000198048, Final residual = 9.47659e-09, No Iterations 128
ExecutionTime = 4.47 s  ClockTime = 4 s

Time = 13500

Courant Number mean: 0.0246667 max: 0.0246668

Calculating p and Sb field

diagonal:  Solving for Sb, Initial residual = 0, Final residual = 0, No Iterations 0
DICPCG:  Solving for p, Initial residual = 0.000664095, Final residual = 9.85037e-09, No Iterations 133
ExecutionTime = 4.55 s  ClockTime = 5 s

Time = 13600

Courant Number mean: 0.0246667 max: 0.0246668

Calculating p and Sb field

diagonal:  Solving for Sb, Initial residual = 0, Final residual = 0, No Iterations 0
DICPCG:  Solving for p, Initial residual = 0.000561187, Final residual = 9.25062e-09, No Iterations 115
ExecutionTime = 4.57 s  ClockTime = 5 s

Time = 13700

Courant Number mean: 0.0246667 max: 0.0246668

Calculating p and Sb field

diagonal:  Solving for Sb, Initial residual = 0, Final residual = 0, No Iterations 0
DICPCG:  Solving for p, Initial residual = 0.000498336, Final residual = 8.64952e-09, No Iterations 128
ExecutionTime = 4.59 s  ClockTime = 5 s

Time = 13800

Courant Number mean: 0.0246667 max: 0.0246668

Calculating p and Sb field

diagonal:  Solving for Sb, Initial residual = 0, Final residual = 0, No Iterations 0
DICPCG:  Solving for p, Initial residual = 0.000485644, Final residual = 9.15393e-09, No Iterations 133
ExecutionTime = 4.61 s  ClockTime = 5 s

Time = 13900

Courant Number mean: 0.0246667 max: 0.0246668

Calculating p and Sb field

diagonal:  Solving for Sb, Initial residual = 0, Final residual = 0, No Iterations 0
DICPCG:  Solving for p, Initial residual = 0.000290122, Final residual = 9.04571e-09, No Iterations 130
ExecutionTime = 4.64 s  ClockTime = 5 s

Time = 14000

Courant Number mean: 0.0246667 max: 0.0246667

Calculating p and Sb field

diagonal:  Solving for Sb, Initial residual = 0, Final residual = 0, No Iterations 0
DICPCG:  Solving for p, Initial residual = 0.000582654, Final residual = 9.28773e-09, No Iterations 133
ExecutionTime = 4.71 s  ClockTime = 5 s

Time = 14100

Courant Number mean: 0.0246667 max: 0.0246668

Calculating p and Sb field

diagonal:  Solving for Sb, Initial residual = 0, Final residual = 0, No Iterations 0
DICPCG:  Solving for p, Initial residual = 0.000584148, Final residual = 8.36482e-09, No Iterations 124
ExecutionTime = 4.73 s  ClockTime = 5 s

Time = 14200

Courant Number mean: 0.0246667 max: 0.0246668

Calculating p and Sb field

diagonal:  Solving for Sb, Initial residual = 0, Final residual = 0, No Iterations 0
DICPCG:  Solving for p, Initial residual = 0.00050077, Final residual = 9.70176e-09, No Iterations 127
ExecutionTime = 4.76 s  ClockTime = 5 s

Time = 14300

Courant Number mean: 0.0246667 max: 0.0246668

Calculating p and Sb field

diagonal:  Solving for Sb, Initial residual = 0, Final residual = 0, No Iterations 0
DICPCG:  Solving for p, Initial residual = 0.000488124, Final residual = 9.59275e-09, No Iterations 132
ExecutionTime = 4.78 s  ClockTime = 5 s

Time = 14400

Courant Number mean: 0.0246667 max: 0.0246669

Calculating p and Sb field

diagonal:  Solving for Sb, Initial residual = 0, Final residual = 0, No Iterations 0
DICPCG:  Solving for p, Initial residual = 0.000358059, Final residual = 8.85116e-09, No Iterations 133
ExecutionTime = 4.8 s  ClockTime = 5 s

Time = 14500

Courant Number mean: 0.0246667 max: 0.0246667

Calculating p and Sb field

diagonal:  Solving for Sb, Initial residual = 0, Final residual = 0, No Iterations 0
DICPCG:  Solving for p, Initial residual = 0.000455883, Final residual = 9.91352e-09, No Iterations 130
ExecutionTime = 4.88 s  ClockTime = 5 s

Time = 14600

Courant Number mean: 0.0246667 max: 0.0246669

Calculating p and Sb field

diagonal:  Solving for Sb, Initial residual = 0, Final residual = 0, No Iterations 0
DICPCG:  Solving for p, Initial residual = 0.000613962, Final residual = 8.92197e-09, No Iterations 127
ExecutionTime = 4.9 s  ClockTime = 5 s

Time = 14700

Courant Number mean: 0.0246667 max: 0.0246668

Calculating p and Sb field

diagonal:  Solving for Sb, Initial residual = 0, Final residual = 0, No Iterations 0
DICPCG:  Solving for p, Initial residual = 0.000505365, Final residual = 7.7546e-09, No Iterations 127
ExecutionTime = 4.92 s  ClockTime = 5 s

Time = 14800

Courant Number mean: 0.0246667 max: 0.0246669

Calculating p and Sb field

diagonal:  Solving for Sb, Initial residual = 0, Final residual = 0, No Iterations 0
DICPCG:  Solving for p, Initial residual = 0.000488762, Final residual = 9.63793e-09, No Iterations 130
ExecutionTime = 4.94 s  ClockTime = 5 s

Time = 14900

Courant Number mean: 0.0246667 max: 0.0246669

Calculating p and Sb field

diagonal:  Solving for Sb, Initial residual = 0, Final residual = 0, No Iterations 0
DICPCG:  Solving for p, Initial residual = 0.000405622, Final residual = 9.82187e-09, No Iterations 133
ExecutionTime = 4.96 s  ClockTime = 5 s

Time = 15000

Courant Number mean: 0.0246667 max: 0.0246668

Calculating p and Sb field

diagonal:  Solving for Sb, Initial residual = 0, Final residual = 0, No Iterations 0
DICPCG:  Solving for p, Initial residual = 0.000300064, Final residual = 7.81689e-09, No Iterations 129
ExecutionTime = 5.04 s  ClockTime = 5 s

Time = 15100

Courant Number mean: 0.0246667 max: 0.0246669

Calculating p and Sb field

diagonal:  Solving for Sb, Initial residual = 0, Final residual = 0, No Iterations 0
DICPCG:  Solving for p, Initial residual = 0.000647115, Final residual = 7.31094e-09, No Iterations 129
ExecutionTime = 5.06 s  ClockTime = 5 s

Time = 15200

Courant Number mean: 0.0246667 max: 0.0246668

Calculating p and Sb field

diagonal:  Solving for Sb, Initial residual = 0, Final residual = 0, No Iterations 0
DICPCG:  Solving for p, Initial residual = 0.000511952, Final residual = 8.80837e-09, No Iterations 125
ExecutionTime = 5.08 s  ClockTime = 5 s

Time = 15300

Courant Number mean: 0.0246667 max: 0.0246669

Calculating p and Sb field

diagonal:  Solving for Sb, Initial residual = 0, Final residual = 0, No Iterations 0
DICPCG:  Solving for p, Initial residual = 0.000488371, Final residual = 9.64386e-09, No Iterations 129
ExecutionTime = 5.1 s  ClockTime = 5 s

Time = 15400

Courant Number mean: 0.0246667 max: 0.0246669

Calculating p and Sb field

diagonal:  Solving for Sb, Initial residual = 0, Final residual = 0, No Iterations 0
DICPCG:  Solving for p, Initial residual = 0.000437227, Final residual = 9.4469e-09, No Iterations 133
ExecutionTime = 5.12 s  ClockTime = 5 s

Time = 15500

Courant Number mean: 0.0246667 max: 0.0246668

Calculating p and Sb field

diagonal:  Solving for Sb, Initial residual = 0, Final residual = 0, No Iterations 0
DICPCG:  Solving for p, Initial residual = 0.000137403, Final residual = 9.2588e-09, No Iterations 125
ExecutionTime = 5.2 s  ClockTime = 5 s

Time = 15600

Courant Number mean: 0.0246667 max: 0.0246669

Calculating p and Sb field

diagonal:  Solving for Sb, Initial residual = 0, Final residual = 0, No Iterations 0
DICPCG:  Solving for p, Initial residual = 0.000674621, Final residual = 9.82818e-09, No Iterations 129
ExecutionTime = 5.22 s  ClockTime = 5 s

Time = 15700

Courant Number mean: 0.0246667 max: 0.0246668

Calculating p and Sb field

diagonal:  Solving for Sb, Initial residual = 0, Final residual = 0, No Iterations 0
DICPCG:  Solving for p, Initial residual = 0.000520399, Final residual = 9.63871e-09, No Iterations 121
ExecutionTime = 5.24 s  ClockTime = 5 s

Time = 15800

Courant Number mean: 0.0246667 max: 0.0246669

Calculating p and Sb field

diagonal:  Solving for Sb, Initial residual = 0, Final residual = 0, No Iterations 0
DICPCG:  Solving for p, Initial residual = 0.000487471, Final residual = 9.05231e-09, No Iterations 129
ExecutionTime = 5.26 s  ClockTime = 5 s

Time = 15900

Courant Number mean: 0.0246667 max: 0.024667

Calculating p and Sb field

diagonal:  Solving for Sb, Initial residual = 0, Final residual = 0, No Iterations 0
DICPCG:  Solving for p, Initial residual = 0.000456948, Final residual = 8.95806e-09, No Iterations 133
ExecutionTime = 5.29 s  ClockTime = 5 s

Time = 16000

Courant Number mean: 0.0246667 max: 0.0246669

Calculating p and Sb field

diagonal:  Solving for Sb, Initial residual = 0, Final residual = 0, No Iterations 0
DICPCG:  Solving for p, Initial residual = 6.63864e-05, Final residual = 8.91687e-09, No Iterations 118
ExecutionTime = 5.36 s  ClockTime = 5 s

Time = 16100

Courant Number mean: 0.0246667 max: 0.0246669

Calculating p and Sb field

diagonal:  Solving for Sb, Initial residual = 0, Final residual = 0, No Iterations 0
DICPCG:  Solving for p, Initial residual = 0.000682156, Final residual = 8.82169e-09, No Iterations 132
ExecutionTime = 5.38 s  ClockTime = 5 s

Time = 16200

Courant Number mean: 0.0246667 max: 0.0246668

Calculating p and Sb field

diagonal:  Solving for Sb, Initial residual = 0, Final residual = 0, No Iterations 0
DICPCG:  Solving for p, Initial residual = 0.000531344, Final residual = 8.05861e-09, No Iterations 114
ExecutionTime = 5.4 s  ClockTime = 5 s

Time = 16300

Courant Number mean: 0.0246667 max: 0.0246669

Calculating p and Sb field

diagonal:  Solving for Sb, Initial residual = 0, Final residual = 0, No Iterations 0
DICPCG:  Solving for p, Initial residual = 0.000486672, Final residual = 8.43849e-09, No Iterations 129
ExecutionTime = 5.42 s  ClockTime = 5 s

Time = 16400

Courant Number mean: 0.0246667 max: 0.024667

Calculating p and Sb field

diagonal:  Solving for Sb, Initial residual = 0, Final residual = 0, No Iterations 0
DICPCG:  Solving for p, Initial residual = 0.000468256, Final residual = 9.19392e-09, No Iterations 133
ExecutionTime = 5.45 s  ClockTime = 5 s

Time = 16500

Courant Number mean: 0.0246667 max: 0.024667

Calculating p and Sb field

diagonal:  Solving for Sb, Initial residual = 0, Final residual = 0, No Iterations 0
DICPCG:  Solving for p, Initial residual = 0.00018325, Final residual = 8.74583e-09, No Iterations 128
ExecutionTime = 5.52 s  ClockTime = 5 s

Time = 16600

Courant Number mean: 0.0246667 max: 0.0246669

Calculating p and Sb field

diagonal:  Solving for Sb, Initial residual = 0, Final residual = 0, No Iterations 0
DICPCG:  Solving for p, Initial residual = 0.000653652, Final residual = 9.64151e-09, No Iterations 132
ExecutionTime = 5.54 s  ClockTime = 6 s

Time = 16700

Courant Number mean: 0.0246667 max: 0.0246669

Calculating p and Sb field

diagonal:  Solving for Sb, Initial residual = 0, Final residual = 0, No Iterations 0
DICPCG:  Solving for p, Initial residual = 0.000546484, Final residual = 8.53529e-09, No Iterations 115
ExecutionTime = 5.56 s  ClockTime = 6 s

Time = 16800

Courant Number mean: 0.0246667 max: 0.0246669

Calculating p and Sb field

diagonal:  Solving for Sb, Initial residual = 0, Final residual = 0, No Iterations 0
DICPCG:  Solving for p, Initial residual = 0.0004868, Final residual = 9.63288e-09, No Iterations 128
ExecutionTime = 5.58 s  ClockTime = 6 s

Time = 16900

Courant Number mean: 0.0246667 max: 0.024667

Calculating p and Sb field

diagonal:  Solving for Sb, Initial residual = 0, Final residual = 0, No Iterations 0
DICPCG:  Solving for p, Initial residual = 0.000473999, Final residual = 9.68117e-09, No Iterations 132
ExecutionTime = 5.6 s  ClockTime = 6 s

Time = 17000

Courant Number mean: 0.0246667 max: 0.024667

Calculating p and Sb field

diagonal:  Solving for Sb, Initial residual = 0, Final residual = 0, No Iterations 0
DICPCG:  Solving for p, Initial residual = 0.000275465, Final residual = 9.01825e-09, No Iterations 130
ExecutionTime = 5.68 s  ClockTime = 6 s

Time = 17100

Courant Number mean: 0.0246667 max: 0.0246668

Calculating p and Sb field

diagonal:  Solving for Sb, Initial residual = 0, Final residual = 0, No Iterations 0
DICPCG:  Solving for p, Initial residual = 0.000578448, Final residual = 9.75533e-09, No Iterations 132
ExecutionTime = 5.71 s  ClockTime = 6 s

Time = 17200

Courant Number mean: 0.0246667 max: 0.024667

Calculating p and Sb field

diagonal:  Solving for Sb, Initial residual = 0, Final residual = 0, No Iterations 0
DICPCG:  Solving for p, Initial residual = 0.000567805, Final residual = 8.99769e-09, No Iterations 125
ExecutionTime = 5.73 s  ClockTime = 6 s

Time = 17300

Courant Number mean: 0.0246667 max: 0.024667

Calculating p and Sb field

diagonal:  Solving for Sb, Initial residual = 0, Final residual = 0, No Iterations 0
DICPCG:  Solving for p, Initial residual = 0.000488649, Final residual = 8.85689e-09, No Iterations 126
ExecutionTime = 5.75 s  ClockTime = 6 s

Time = 17400

Courant Number mean: 0.0246667 max: 0.0246671

Calculating p and Sb field

diagonal:  Solving for Sb, Initial residual = 0, Final residual = 0, No Iterations 0
DICPCG:  Solving for p, Initial residual = 0.000476364, Final residual = 9.54625e-09, No Iterations 131
ExecutionTime = 5.77 s  ClockTime = 6 s

Time = 17500

Courant Number mean: 0.0246667 max: 0.0246671

Calculating p and Sb field

diagonal:  Solving for Sb, Initial residual = 0, Final residual = 0, No Iterations 0
DICPCG:  Solving for p, Initial residual = 0.000343767, Final residual = 9.76108e-09, No Iterations 131
ExecutionTime = 5.85 s  ClockTime = 6 s

Time = 17600

Courant Number mean: 0.0246667 max: 0.0246667

Calculating p and Sb field

diagonal:  Solving for Sb, Initial residual = 0, Final residual = 0, No Iterations 0
DICPCG:  Solving for p, Initial residual = 0.000458255, Final residual = 8.87939e-09, No Iterations 131
ExecutionTime = 5.87 s  ClockTime = 6 s

Time = 17700

Courant Number mean: 0.0246667 max: 0.0246671

Calculating p and Sb field

diagonal:  Solving for Sb, Initial residual = 0, Final residual = 0, No Iterations 0
DICPCG:  Solving for p, Initial residual = 0.000595869, Final residual = 9.65714e-09, No Iterations 126
ExecutionTime = 5.89 s  ClockTime = 6 s

Time = 17800

Courant Number mean: 0.0246667 max: 0.024667

Calculating p and Sb field

diagonal:  Solving for Sb, Initial residual = 0, Final residual = 0, No Iterations 0
DICPCG:  Solving for p, Initial residual = 0.000492594, Final residual = 8.35197e-09, No Iterations 126
ExecutionTime = 5.92 s  ClockTime = 6 s

Time = 17900

Courant Number mean: 0.0246667 max: 0.0246671

Calculating p and Sb field

diagonal:  Solving for Sb, Initial residual = 0, Final residual = 0, No Iterations 0
DICPCG:  Solving for p, Initial residual = 0.000476823, Final residual = 8.31098e-09, No Iterations 131
ExecutionTime = 5.94 s  ClockTime = 6 s

Time = 18000

Courant Number mean: 0.0246667 max: 0.0246672

Calculating p and Sb field

diagonal:  Solving for Sb, Initial residual = 0, Final residual = 0, No Iterations 0
DICPCG:  Solving for p, Initial residual = 0.000391713, Final residual = 9.48604e-09, No Iterations 132
ExecutionTime = 6.02 s  ClockTime = 6 s

Time = 18100

Courant Number mean: 0.0246667 max: 0.0246669

Calculating p and Sb field

diagonal:  Solving for Sb, Initial residual = 0, Final residual = 0, No Iterations 0
DICPCG:  Solving for p, Initial residual = 0.000307973, Final residual = 8.3557e-09, No Iterations 130
ExecutionTime = 6.04 s  ClockTime = 6 s

Time = 18200

Courant Number mean: 0.0246667 max: 0.0246672

Calculating p and Sb field

diagonal:  Solving for Sb, Initial residual = 0, Final residual = 0, No Iterations 0
DICPCG:  Solving for p, Initial residual = 0.000627694, Final residual = 9.95411e-09, No Iterations 128
ExecutionTime = 6.06 s  ClockTime = 6 s

Time = 18300

Courant Number mean: 0.0246667 max: 0.024667

Calculating p and Sb field

diagonal:  Solving for Sb, Initial residual = 0, Final residual = 0, No Iterations 0
DICPCG:  Solving for p, Initial residual = 0.000498503, Final residual = 8.50169e-09, No Iterations 126
ExecutionTime = 6.08 s  ClockTime = 6 s

Time = 18400

Courant Number mean: 0.0246667 max: 0.0246672

Calculating p and Sb field

diagonal:  Solving for Sb, Initial residual = 0, Final residual = 0, No Iterations 0
DICPCG:  Solving for p, Initial residual = 0.000476217, Final residual = 7.9986e-09, No Iterations 130
ExecutionTime = 6.1 s  ClockTime = 6 s

Time = 18500

Courant Number mean: 0.0246667 max: 0.0246673

Calculating p and Sb field

diagonal:  Solving for Sb, Initial residual = 0, Final residual = 0, No Iterations 0
DICPCG:  Solving for p, Initial residual = 0.000423635, Final residual = 9.65808e-09, No Iterations 135
ExecutionTime = 6.19 s  ClockTime = 6 s

Time = 18600

Courant Number mean: 0.0246667 max: 0.024667

Calculating p and Sb field

diagonal:  Solving for Sb, Initial residual = 0, Final residual = 0, No Iterations 0
DICPCG:  Solving for p, Initial residual = 0.000149104, Final residual = 7.82364e-09, No Iterations 126
ExecutionTime = 6.21 s  ClockTime = 6 s

Time = 18700

Courant Number mean: 0.0246667 max: 0.0246673

Calculating p and Sb field

diagonal:  Solving for Sb, Initial residual = 0, Final residual = 0, No Iterations 0
DICPCG:  Solving for p, Initial residual = 0.000655076, Final residual = 8.24994e-09, No Iterations 130
ExecutionTime = 6.23 s  ClockTime = 6 s

Time = 18800

Courant Number mean: 0.0246667 max: 0.024667

Calculating p and Sb field

diagonal:  Solving for Sb, Initial residual = 0, Final residual = 0, No Iterations 0
DICPCG:  Solving for p, Initial residual = 0.000506203, Final residual = 8.48695e-09, No Iterations 124
ExecutionTime = 6.25 s  ClockTime = 6 s

Time = 18900

Courant Number mean: 0.0246667 max: 0.0246672

Calculating p and Sb field

diagonal:  Solving for Sb, Initial residual = 0, Final residual = 0, No Iterations 0
DICPCG:  Solving for p, Initial residual = 0.000475066, Final residual = 9.56622e-09, No Iterations 129
ExecutionTime = 6.27 s  ClockTime = 6 s

Time = 19000

Courant Number mean: 0.0246667 max: 0.0246674

Calculating p and Sb field

diagonal:  Solving for Sb, Initial residual = 0, Final residual = 0, No Iterations 0
DICPCG:  Solving for p, Initial residual = 0.000443582, Final residual = 9.9471e-09, No Iterations 136
ExecutionTime = 6.35 s  ClockTime = 6 s

Time = 19100

Courant Number mean: 0.0246667 max: 0.0246672

Calculating p and Sb field

diagonal:  Solving for Sb, Initial residual = 0, Final residual = 0, No Iterations 0
DICPCG:  Solving for p, Initial residual = 5.33268e-05, Final residual = 9.07026e-09, No Iterations 118
ExecutionTime = 6.37 s  ClockTime = 6 s

Time = 19200

Courant Number mean: 0.0246667 max: 0.0246673

Calculating p and Sb field

diagonal:  Solving for Sb, Initial residual = 0, Final residual = 0, No Iterations 0
DICPCG:  Solving for p, Initial residual = 0.000664525, Final residual = 9.39913e-09, No Iterations 131
ExecutionTime = 6.39 s  ClockTime = 6 s

Time = 19300

Courant Number mean: 0.0246667 max: 0.024667

Calculating p and Sb field

diagonal:  Solving for Sb, Initial residual = 0, Final residual = 0, No Iterations 0
DICPCG:  Solving for p, Initial residual = 0.00051622, Final residual = 7.42513e-09, No Iterations 118
ExecutionTime = 6.41 s  ClockTime = 6 s

Time = 19400

Courant Number mean: 0.0246667 max: 0.0246673

Calculating p and Sb field

diagonal:  Solving for Sb, Initial residual = 0, Final residual = 0, No Iterations 0
DICPCG:  Solving for p, Initial residual = 0.000473948, Final residual = 8.93993e-09, No Iterations 129
ExecutionTime = 6.43 s  ClockTime = 6 s

Time = 19500

Courant Number mean: 0.0246667 max: 0.0246675

Calculating p and Sb field

diagonal:  Solving for Sb, Initial residual = 0, Final residual = 0, No Iterations 0
DICPCG:  Solving for p, Initial residual = 0.000455009, Final residual = 9.87679e-09, No Iterations 136
ExecutionTime = 6.51 s  ClockTime = 6 s

Time = 19600

Courant Number mean: 0.0246667 max: 0.0246674

Calculating p and Sb field

diagonal:  Solving for Sb, Initial residual = 0, Final residual = 0, No Iterations 0
DICPCG:  Solving for p, Initial residual = 0.000168123, Final residual = 9.192e-09, No Iterations 128
ExecutionTime = 6.53 s  ClockTime = 6 s

Time = 19700

Courant Number mean: 0.0246667 max: 0.0246671

Calculating p and Sb field

diagonal:  Solving for Sb, Initial residual = 0, Final residual = 0, No Iterations 0
DICPCG:  Solving for p, Initial residual = 0.000640363, Final residual = 9.81061e-09, No Iterations 131
ExecutionTime = 6.55 s  ClockTime = 7 s

Time = 19800

Courant Number mean: 0.0246667 max: 0.0246672

Calculating p and Sb field

diagonal:  Solving for Sb, Initial residual = 0, Final residual = 0, No Iterations 0
DICPCG:  Solving for p, Initial residual = 0.000530106, Final residual = 9.9802e-09, No Iterations 114
ExecutionTime = 6.57 s  ClockTime = 7 s

Time = 19900

Courant Number mean: 0.0246667 max: 0.0246673

Calculating p and Sb field

diagonal:  Solving for Sb, Initial residual = 0, Final residual = 0, No Iterations 0
DICPCG:  Solving for p, Initial residual = 0.000473653, Final residual = 9.76363e-09, No Iterations 128
ExecutionTime = 6.6 s  ClockTime = 7 s

Time = 20000

Courant Number mean: 0.0246667 max: 0.0246676

Calculating p and Sb field

diagonal:  Solving for Sb, Initial residual = 0, Final residual = 0, No Iterations 0
DICPCG:  Solving for p, Initial residual = 0.000460763, Final residual = 9.21076e-09, No Iterations 136
ExecutionTime = 6.67 s  ClockTime = 7 s

Time = 20100

Courant Number mean: 0.0246667 max: 0.0246676

Calculating p and Sb field

diagonal:  Solving for Sb, Initial residual = 0, Final residual = 0, No Iterations 0
DICPCG:  Solving for p, Initial residual = 0.000260085, Final residual = 8.96534e-09, No Iterations 130
ExecutionTime = 6.7 s  ClockTime = 7 s

Time = 20200

Courant Number mean: 0.0246667 max: 0.0246669

Calculating p and Sb field

diagonal:  Solving for Sb, Initial residual = 0, Final residual = 0, No Iterations 0
DICPCG:  Solving for p, Initial residual = 0.000571445, Final residual = 9.38555e-09, No Iterations 136
ExecutionTime = 6.72 s  ClockTime = 7 s

Time = 20300

Courant Number mean: 0.0246667 max: 0.0246674

Calculating p and Sb field

diagonal:  Solving for Sb, Initial residual = 0, Final residual = 0, No Iterations 0
DICPCG:  Solving for p, Initial residual = 0.000549817, Final residual = 7.62897e-09, No Iterations 125
ExecutionTime = 6.74 s  ClockTime = 7 s

Time = 20400

Courant Number mean: 0.0246667 max: 0.0246673

Calculating p and Sb field

diagonal:  Solving for Sb, Initial residual = 0, Final residual = 0, No Iterations 0
DICPCG:  Solving for p, Initial residual = 0.000474962, Final residual = 8.40278e-09, No Iterations 128
ExecutionTime = 6.76 s  ClockTime = 7 s

Time = 20500

Courant Number mean: 0.0246667 max: 0.0246676

Calculating p and Sb field

diagonal:  Solving for Sb, Initial residual = 0, Final residual = 0, No Iterations 0
DICPCG:  Solving for p, Initial residual = 0.000463044, Final residual = 9.25657e-09, No Iterations 132
ExecutionTime = 6.84 s  ClockTime = 7 s

Time = 20600

Courant Number mean: 0.0246667 max: 0.0246677

Calculating p and Sb field

diagonal:  Solving for Sb, Initial residual = 0, Final residual = 0, No Iterations 0
DICPCG:  Solving for p, Initial residual = 0.000328483, Final residual = 9.43539e-09, No Iterations 132
ExecutionTime = 6.86 s  ClockTime = 7 s

Time = 20700

Courant Number mean: 0.0246667 max: 0.0246668

Calculating p and Sb field

diagonal:  Solving for Sb, Initial residual = 0, Final residual = 0, No Iterations 0
DICPCG:  Solving for p, Initial residual = 0.000458174, Final residual = 8.92459e-09, No Iterations 132
ExecutionTime = 6.88 s  ClockTime = 7 s

Time = 20800

Courant Number mean: 0.0246667 max: 0.0246676

Calculating p and Sb field

diagonal:  Solving for Sb, Initial residual = 0, Final residual = 0, No Iterations 0
DICPCG:  Solving for p, Initial residual = 0.000576111, Final residual = 7.99429e-09, No Iterations 128
ExecutionTime = 6.9 s  ClockTime = 7 s

Time = 20900

Courant Number mean: 0.0246667 max: 0.0246674

Calculating p and Sb field

diagonal:  Solving for Sb, Initial residual = 0, Final residual = 0, No Iterations 0
DICPCG:  Solving for p, Initial residual = 0.000478297, Final residual = 9.14371e-09, No Iterations 127
ExecutionTime = 6.92 s  ClockTime = 7 s

Time = 21000

Courant Number mean: 0.0246667 max: 0.0246677

Calculating p and Sb field

diagonal:  Solving for Sb, Initial residual = 0, Final residual = 0, No Iterations 0
DICPCG:  Solving for p, Initial residual = 0.000463363, Final residual = 9.75942e-09, No Iterations 131
ExecutionTime = 7 s  ClockTime = 7 s

Time = 21100

Courant Number mean: 0.0246667 max: 0.0246679

Calculating p and Sb field

diagonal:  Solving for Sb, Initial residual = 0, Final residual = 0, No Iterations 0
DICPCG:  Solving for p, Initial residual = 0.000376642, Final residual = 9.85727e-09, No Iterations 137
ExecutionTime = 7.02 s  ClockTime = 7 s

Time = 21200

Courant Number mean: 0.0246667 max: 0.0246671

Calculating p and Sb field

diagonal:  Solving for Sb, Initial residual = 0, Final residual = 0, No Iterations 0
DICPCG:  Solving for p, Initial residual = 0.000314009, Final residual = 9.46855e-09, No Iterations 129
ExecutionTime = 7.04 s  ClockTime = 7 s

Time = 21300

Courant Number mean: 0.0246667 max: 0.0246679

Calculating p and Sb field

diagonal:  Solving for Sb, Initial residual = 0, Final residual = 0, No Iterations 0
DICPCG:  Solving for p, Initial residual = 0.000606503, Final residual = 7.92705e-09, No Iterations 129
ExecutionTime = 7.07 s  ClockTime = 7 s

Time = 21400

Courant Number mean: 0.0246667 max: 0.0246674

Calculating p and Sb field

diagonal:  Solving for Sb, Initial residual = 0, Final residual = 0, No Iterations 0
DICPCG:  Solving for p, Initial residual = 0.000483563, Final residual = 9.18673e-09, No Iterations 125
ExecutionTime = 7.09 s  ClockTime = 7 s

Time = 21500

Courant Number mean: 0.0246667 max: 0.0246679

Calculating p and Sb field

diagonal:  Solving for Sb, Initial residual = 0, Final residual = 0, No Iterations 0
DICPCG:  Solving for p, Initial residual = 0.000462585, Final residual = 9.35726e-09, No Iterations 130
ExecutionTime = 7.17 s  ClockTime = 7 s

Time = 21600

Courant Number mean: 0.0246667 max: 0.0246681

Calculating p and Sb field

diagonal:  Solving for Sb, Initial residual = 0, Final residual = 0, No Iterations 0
DICPCG:  Solving for p, Initial residual = 0.000408783, Final residual = 8.93177e-09, No Iterations 139
ExecutionTime = 7.19 s  ClockTime = 7 s

Time = 21700

Courant Number mean: 0.0246667 max: 0.0246675

Calculating p and Sb field

diagonal:  Solving for Sb, Initial residual = 0, Final residual = 0, No Iterations 0
DICPCG:  Solving for p, Initial residual = 0.000159606, Final residual = 8.77088e-09, No Iterations 127
ExecutionTime = 7.22 s  ClockTime = 7 s

Time = 21800

Courant Number mean: 0.0246667 max: 0.024668

Calculating p and Sb field

diagonal:  Solving for Sb, Initial residual = 0, Final residual = 0, No Iterations 0
DICPCG:  Solving for p, Initial residual = 0.000633566, Final residual = 9.41325e-09, No Iterations 130
ExecutionTime = 7.24 s  ClockTime = 7 s

Time = 21900

Courant Number mean: 0.0246667 max: 0.0246675

Calculating p and Sb field

diagonal:  Solving for Sb, Initial residual = 0, Final residual = 0, No Iterations 0
DICPCG:  Solving for p, Initial residual = 0.00049056, Final residual = 9.7097e-09, No Iterations 120
ExecutionTime = 7.26 s  ClockTime = 7 s

Time = 22000

Courant Number mean: 0.0246667 max: 0.024668

Calculating p and Sb field

diagonal:  Solving for Sb, Initial residual = 0, Final residual = 0, No Iterations 0
DICPCG:  Solving for p, Initial residual = 0.000461233, Final residual = 9.2468e-09, No Iterations 130
ExecutionTime = 7.34 s  ClockTime = 7 s

Time = 22100

Courant Number mean: 0.0246667 max: 0.0246683

Calculating p and Sb field

diagonal:  Solving for Sb, Initial residual = 0, Final residual = 0, No Iterations 0
DICPCG:  Solving for p, Initial residual = 0.000428908, Final residual = 9.18985e-09, No Iterations 139
ExecutionTime = 7.36 s  ClockTime = 7 s

Time = 22200

Courant Number mean: 0.0246667 max: 0.0246679

Calculating p and Sb field

diagonal:  Solving for Sb, Initial residual = 0, Final residual = 0, No Iterations 0
DICPCG:  Solving for p, Initial residual = 5.27949e-05, Final residual = 9.4993e-09, No Iterations 114
ExecutionTime = 7.38 s  ClockTime = 7 s

Time = 22300

Courant Number mean: 0.0246667 max: 0.024668

Calculating p and Sb field

diagonal:  Solving for Sb, Initial residual = 0, Final residual = 0, No Iterations 0
DICPCG:  Solving for p, Initial residual = 0.000644667, Final residual = 9.76341e-09, No Iterations 136
ExecutionTime = 7.4 s  ClockTime = 7 s

Time = 22400

Courant Number mean: 0.0246667 max: 0.0246675

Calculating p and Sb field

diagonal:  Solving for Sb, Initial residual = 0, Final residual = 0, No Iterations 0
DICPCG:  Solving for p, Initial residual = 0.000499699, Final residual = 8.23389e-09, No Iterations 118
ExecutionTime = 7.42 s  ClockTime = 7 s

Time = 22500

Courant Number mean: 0.0246667 max: 0.0246681

Calculating p and Sb field

diagonal:  Solving for Sb, Initial residual = 0, Final residual = 0, No Iterations 0
DICPCG:  Solving for p, Initial residual = 0.000459851, Final residual = 9.47284e-09, No Iterations 129
ExecutionTime = 7.5 s  ClockTime = 7 s

Time = 22600

Courant Number mean: 0.0246667 max: 0.0246685

Calculating p and Sb field

diagonal:  Solving for Sb, Initial residual = 0, Final residual = 0, No Iterations 0
DICPCG:  Solving for p, Initial residual = 0.000440448, Final residual = 9.29442e-09, No Iterations 137
ExecutionTime = 7.53 s  ClockTime = 8 s

Time = 22700

Courant Number mean: 0.0246667 max: 0.0246684

Calculating p and Sb field

diagonal:  Solving for Sb, Initial residual = 0, Final residual = 0, No Iterations 0
DICPCG:  Solving for p, Initial residual = 0.000152893, Final residual = 9.62912e-09, No Iterations 127
ExecutionTime = 7.55 s  ClockTime = 8 s

Time = 22800

Courant Number mean: 0.0246667 max: 0.0246678

Calculating p and Sb field

diagonal:  Solving for Sb, Initial residual = 0, Final residual = 0, No Iterations 0
DICPCG:  Solving for p, Initial residual = 0.000624629, Final residual = 9.099e-09, No Iterations 138
ExecutionTime = 7.57 s  ClockTime = 8 s

Time = 22900

Courant Number mean: 0.0246667 max: 0.0246678

Calculating p and Sb field

diagonal:  Solving for Sb, Initial residual = 0, Final residual = 0, No Iterations 0
DICPCG:  Solving for p, Initial residual = 0.000512392, Final residual = 9.73859e-09, No Iterations 116
ExecutionTime = 7.59 s  ClockTime = 8 s

Time = 23000

Courant Number mean: 0.0246667 max: 0.0246682

Calculating p and Sb field

diagonal:  Solving for Sb, Initial residual = 0, Final residual = 0, No Iterations 0
DICPCG:  Solving for p, Initial residual = 0.000459186, Final residual = 9.39201e-09, No Iterations 128
ExecutionTime = 7.67 s  ClockTime = 8 s

Time = 23100

Courant Number mean: 0.0246667 max: 0.0246688

Calculating p and Sb field

diagonal:  Solving for Sb, Initial residual = 0, Final residual = 0, No Iterations 0
DICPCG:  Solving for p, Initial residual = 0.00044623, Final residual = 9.54693e-09, No Iterations 137
ExecutionTime = 7.69 s  ClockTime = 8 s

Time = 23200

Courant Number mean: 0.0246667 max: 0.0246688

Calculating p and Sb field

diagonal:  Solving for Sb, Initial residual = 0, Final residual = 0, No Iterations 0
DICPCG:  Solving for p, Initial residual = 0.00024424, Final residual = 9.66015e-09, No Iterations 131
ExecutionTime = 7.71 s  ClockTime = 8 s

Time = 23300

Courant Number mean: 0.0246667 max: 0.0246672

Calculating p and Sb field

diagonal:  Solving for Sb, Initial residual = 0, Final residual = 0, No Iterations 0
DICPCG:  Solving for p, Initial residual = 0.000561957, Final residual = 9.68322e-09, No Iterations 137
ExecutionTime = 7.74 s  ClockTime = 8 s

Time = 23400

Courant Number mean: 0.0246667 max: 0.0246682

Calculating p and Sb field

diagonal:  Solving for Sb, Initial residual = 0, Final residual = 0, No Iterations 0
DICPCG:  Solving for p, Initial residual = 0.000530546, Final residual = 9.18387e-09, No Iterations 122
ExecutionTime = 7.76 s  ClockTime = 8 s

Time = 23500

Courant Number mean: 0.0246667 max: 0.0246683

Calculating p and Sb field

diagonal:  Solving for Sb, Initial residual = 0, Final residual = 0, No Iterations 0
DICPCG:  Solving for p, Initial residual = 0.000460016, Final residual = 8.95564e-09, No Iterations 128
ExecutionTime = 7.84 s  ClockTime = 8 s

Time = 23600

Courant Number mean: 0.0246667 max: 0.0246689

Calculating p and Sb field

diagonal:  Solving for Sb, Initial residual = 0, Final residual = 0, No Iterations 0
DICPCG:  Solving for p, Initial residual = 0.000448463, Final residual = 7.90981e-09, No Iterations 137
ExecutionTime = 7.86 s  ClockTime = 8 s

Time = 23700

Courant Number mean: 0.0246667 max: 0.0246692

Calculating p and Sb field

diagonal:  Solving for Sb, Initial residual = 0, Final residual = 0, No Iterations 0
DICPCG:  Solving for p, Initial residual = 0.000312481, Final residual = 9.93994e-09, No Iterations 136
ExecutionTime = 7.88 s  ClockTime = 8 s

Time = 23800

Courant Number mean: 0.0246667 max: 0.0246668

Calculating p and Sb field

diagonal:  Solving for Sb, Initial residual = 0, Final residual = 0, No Iterations 0
DICPCG:  Solving for p, Initial residual = 0.000455826, Final residual = 9.84203e-09, No Iterations 136
ExecutionTime = 7.9 s  ClockTime = 8 s

Time = 23900

Courant Number mean: 0.0246667 max: 0.0246688

Calculating p and Sb field

diagonal:  Solving for Sb, Initial residual = 0, Final residual = 0, No Iterations 0
DICPCG:  Solving for p, Initial residual = 0.000555079, Final residual = 9.5332e-09, No Iterations 126
ExecutionTime = 7.92 s  ClockTime = 8 s

Time = 24000

Courant Number mean: 0.0246667 max: 0.0246683

Calculating p and Sb field

diagonal:  Solving for Sb, Initial residual = 0, Final residual = 0, No Iterations 0
DICPCG:  Solving for p, Initial residual = 0.000462789, Final residual = 9.88805e-09, No Iterations 124
ExecutionTime = 8 s  ClockTime = 8 s

Time = 24100

Courant Number mean: 0.0246667 max: 0.0246692

Calculating p and Sb field

diagonal:  Solving for Sb, Initial residual = 0, Final residual = 0, No Iterations 0
DICPCG:  Solving for p, Initial residual = 0.000448679, Final residual = 9.2731e-09, No Iterations 136
ExecutionTime = 8.02 s  ClockTime = 8 s

Time = 24200

Courant Number mean: 0.0246667 max: 0.0246696

Calculating p and Sb field

diagonal:  Solving for Sb, Initial residual = 0, Final residual = 0, No Iterations 0
DICPCG:  Solving for p, Initial residual = 0.000360694, Final residual = 9.90728e-09, No Iterations 137
ExecutionTime = 8.05 s  ClockTime = 8 s

Time = 24300

Courant Number mean: 0.0246667 max: 0.0246676

Calculating p and Sb field

diagonal:  Solving for Sb, Initial residual = 0, Final residual = 0, No Iterations 0
DICPCG:  Solving for p, Initial residual = 0.000318233, Final residual = 9.9154e-09, No Iterations 131
ExecutionTime = 8.07 s  ClockTime = 8 s

Time = 24400

Courant Number mean: 0.0246667 max: 0.0246693

Calculating p and Sb field

diagonal:  Solving for Sb, Initial residual = 0, Final residual = 0, No Iterations 0
DICPCG:  Solving for p, Initial residual = 0.000583968, Final residual = 9.49639e-09, No Iterations 129
ExecutionTime = 8.09 s  ClockTime = 8 s

Time = 24500

Courant Number mean: 0.0246667 max: 0.0246685

Calculating p and Sb field

diagonal:  Solving for Sb, Initial residual = 0, Final residual = 0, No Iterations 0
DICPCG:  Solving for p, Initial residual = 0.000467451, Final residual = 8.19938e-09, No Iterations 124
ExecutionTime = 8.17 s  ClockTime = 8 s

Time = 24600

Courant Number mean: 0.0246667 max: 0.0246695

Calculating p and Sb field

diagonal:  Solving for Sb, Initial residual = 0, Final residual = 0, No Iterations 0
DICPCG:  Solving for p, Initial residual = 0.00044777, Final residual = 9.42369e-09, No Iterations 135
ExecutionTime = 8.19 s  ClockTime = 8 s

Time = 24700

Courant Number mean: 0.0246667 max: 0.0246701

Calculating p and Sb field

diagonal:  Solving for Sb, Initial residual = 0, Final residual = 0, No Iterations 0
DICPCG:  Solving for p, Initial residual = 0.000392962, Final residual = 9.63682e-09, No Iterations 138
ExecutionTime = 8.21 s  ClockTime = 8 s

Time = 24800

Courant Number mean: 0.0246667 max: 0.0246686

Calculating p and Sb field

diagonal:  Solving for Sb, Initial residual = 0, Final residual = 0, No Iterations 0
[...]
DICPCG:  Solving for p, Initial residual = 1.15107e-08, Final residual = 8.0238e-09, No Iterations 1
ExecutionTime = 44.66 s  ClockTime = 45 s

Time = 143900

Courant Number mean: 0.0246667 max: 0.0246668

Calculating p and Sb field

diagonal:  Solving for Sb, Initial residual = 0, Final residual = 0, No Iterations 0
DICPCG:  Solving for p, Initial residual = 1.14089e-08, Final residual = 7.98174e-09, No Iterations 1
ExecutionTime = 44.66 s  ClockTime = 45 s

Time = 144000

Courant Number mean: 0.0246667 max: 0.0246668

Calculating p and Sb field

diagonal:  Solving for Sb, Initial residual = 0, Final residual = 0, No Iterations 0
DICPCG:  Solving for p, Initial residual = 1.13163e-08, Final residual = 7.99901e-09, No Iterations 1
ExecutionTime = 44.72 s  ClockTime = 45 s

Time = 144100

Courant Number mean: 0.0246667 max: 0.0246668

Calculating p and Sb field

diagonal:  Solving for Sb, Initial residual = 0, Final residual = 0, No Iterations 0
DICPCG:  Solving for p, Initial residual = 1.13068e-08, Final residual = 8.01709e-09, No Iterations 1
ExecutionTime = 44.73 s  ClockTime = 45 s

Time = 144200

Courant Number mean: 0.0246667 max: 0.0246668

Calculating p and Sb field

diagonal:  Solving for Sb, Initial residual = 0, Final residual = 0, No Iterations 0
DICPCG:  Solving for p, Initial residual = 1.13118e-08, Final residual = 8.09621e-09, No Iterations 1
ExecutionTime = 44.73 s  ClockTime = 45 s

Time = 144300

Courant Number mean: 0.0246667 max: 0.0246668

Calculating p and Sb field

diagonal:  Solving for Sb, Initial residual = 0, Final residual = 0, No Iterations 0
DICPCG:  Solving for p, Initial residual = 1.13928e-08, Final residual = 8.17598e-09, No Iterations 1
ExecutionTime = 44.73 s  ClockTime = 45 s

Time = 144400

Courant Number mean: 0.0246667 max: 0.0246668

Calculating p and Sb field

diagonal:  Solving for Sb, Initial residual = 0, Final residual = 0, No Iterations 0
DICPCG:  Solving for p, Initial residual = 1.15259e-08, Final residual = 8.30183e-09, No Iterations 1
ExecutionTime = 44.74 s  ClockTime = 45 s

Time = 144500

Courant Number mean: 0.0246667 max: 0.0246668

Calculating p and Sb field

diagonal:  Solving for Sb, Initial residual = 0, Final residual = 0, No Iterations 0
DICPCG:  Solving for p, Initial residual = 1.16835e-08, Final residual = 8.44987e-09, No Iterations 1
ExecutionTime = 44.8 s  ClockTime = 45 s

Time = 144600

Courant Number mean: 0.0246667 max: 0.0246668

Calculating p and Sb field

diagonal:  Solving for Sb, Initial residual = 0, Final residual = 0, No Iterations 0
DICPCG:  Solving for p, Initial residual = 1.19092e-08, Final residual = 8.6019e-09, No Iterations 1
ExecutionTime = 44.81 s  ClockTime = 45 s

Time = 144700

Courant Number mean: 0.0246667 max: 0.0246668

Calculating p and Sb field

diagonal:  Solving for Sb, Initial residual = 0, Final residual = 0, No Iterations 0
DICPCG:  Solving for p, Initial residual = 1.2137e-08, Final residual = 8.79553e-09, No Iterations 1
ExecutionTime = 44.81 s  ClockTime = 45 s

Time = 144800

Courant Number mean: 0.0246667 max: 0.0246668

Calculating p and Sb field

diagonal:  Solving for Sb, Initial residual = 0, Final residual = 0, No Iterations 0
DICPCG:  Solving for p, Initial residual = 1.24208e-08, Final residual = 8.98204e-09, No Iterations 1
ExecutionTime = 44.82 s  ClockTime = 45 s

Time = 144900

Courant Number mean: 0.0246667 max: 0.0246668

Calculating p and Sb field

diagonal:  Solving for Sb, Initial residual = 0, Final residual = 0, No Iterations 0
DICPCG:  Solving for p, Initial residual = 1.27234e-08, Final residual = 9.20368e-09, No Iterations 1
ExecutionTime = 44.82 s  ClockTime = 45 s

Time = 145000

Courant Number mean: 0.0246667 max: 0.0246668

Calculating p and Sb field

diagonal:  Solving for Sb, Initial residual = 0, Final residual = 0, No Iterations 0
DICPCG:  Solving for p, Initial residual = 1.30291e-08, Final residual = 9.42939e-09, No Iterations 1
ExecutionTime = 44.89 s  ClockTime = 45 s

Time = 145100

Courant Number mean: 0.0246667 max: 0.0246668

Calculating p and Sb field

diagonal:  Solving for Sb, Initial residual = 0, Final residual = 0, No Iterations 0
DICPCG:  Solving for p, Initial residual = 1.33689e-08, Final residual = 9.65686e-09, No Iterations 1
ExecutionTime = 44.9 s  ClockTime = 45 s

Time = 145200

Courant Number mean: 0.0246667 max: 0.0246668

Calculating p and Sb field

diagonal:  Solving for Sb, Initial residual = 0, Final residual = 0, No Iterations 0
DICPCG:  Solving for p, Initial residual = 1.36866e-08, Final residual = 9.90124e-09, No Iterations 1
ExecutionTime = 44.9 s  ClockTime = 45 s

Time = 145300

Courant Number mean: 0.0246667 max: 0.0246668

Calculating p and Sb field

diagonal:  Solving for Sb, Initial residual = 0, Final residual = 0, No Iterations 0
DICPCG:  Solving for p, Initial residual = 1.4029e-08, Final residual = 6.94894e-09, No Iterations 2
ExecutionTime = 44.9 s  ClockTime = 45 s

Time = 145400

Courant Number mean: 0.0246667 max: 0.0246668

Calculating p and Sb field

diagonal:  Solving for Sb, Initial residual = 0, Final residual = 0, No Iterations 0
DICPCG:  Solving for p, Initial residual = 7.48273e-09, Final residual = 7.48273e-09, No Iterations 0
ExecutionTime = 44.91 s  ClockTime = 45 s

Time = 145500

Courant Number mean: 0.0246667 max: 0.0246668

Calculating p and Sb field

diagonal:  Solving for Sb, Initial residual = 0, Final residual = 0, No Iterations 0
DICPCG:  Solving for p, Initial residual = 8.34675e-09, Final residual = 8.34675e-09, No Iterations 0
ExecutionTime = 44.97 s  ClockTime = 45 s

Time = 145600

Courant Number mean: 0.0246667 max: 0.0246668

Calculating p and Sb field

diagonal:  Solving for Sb, Initial residual = 0, Final residual = 0, No Iterations 0
DICPCG:  Solving for p, Initial residual = 9.19922e-09, Final residual = 9.19922e-09, No Iterations 0
ExecutionTime = 44.98 s  ClockTime = 45 s

Time = 145700

Courant Number mean: 0.0246667 max: 0.0246668

Calculating p and Sb field

diagonal:  Solving for Sb, Initial residual = 0, Final residual = 0, No Iterations 0
DICPCG:  Solving for p, Initial residual = 1.00578e-08, Final residual = 6.44029e-09, No Iterations 2
ExecutionTime = 44.98 s  ClockTime = 45 s

Time = 145800

Courant Number mean: 0.0246667 max: 0.0246668

Calculating p and Sb field

diagonal:  Solving for Sb, Initial residual = 0, Final residual = 0, No Iterations 0
DICPCG:  Solving for p, Initial residual = 6.64575e-09, Final residual = 6.64575e-09, No Iterations 0
ExecutionTime = 44.98 s  ClockTime = 45 s

Time = 145900

Courant Number mean: 0.0246667 max: 0.0246668

Calculating p and Sb field

diagonal:  Solving for Sb, Initial residual = 0, Final residual = 0, No Iterations 0
DICPCG:  Solving for p, Initial residual = 7.66616e-09, Final residual = 7.66616e-09, No Iterations 0
ExecutionTime = 44.99 s  ClockTime = 45 s

Time = 146000

Courant Number mean: 0.0246667 max: 0.0246668

Calculating p and Sb field

diagonal:  Solving for Sb, Initial residual = 0, Final residual = 0, No Iterations 0
DICPCG:  Solving for p, Initial residual = 8.52846e-09, Final residual = 8.52846e-09, No Iterations 0
ExecutionTime = 45.05 s  ClockTime = 45 s

Time = 146100

Courant Number mean: 0.0246667 max: 0.0246668

Calculating p and Sb field

diagonal:  Solving for Sb, Initial residual = 0, Final residual = 0, No Iterations 0
DICPCG:  Solving for p, Initial residual = 9.26087e-09, Final residual = 9.26087e-09, No Iterations 0
ExecutionTime = 45.06 s  ClockTime = 45 s

Time = 146200

Courant Number mean: 0.0246667 max: 0.0246668

Calculating p and Sb field

diagonal:  Solving for Sb, Initial residual = 0, Final residual = 0, No Iterations 0
DICPCG:  Solving for p, Initial residual = 9.90641e-09, Final residual = 9.90641e-09, No Iterations 0
ExecutionTime = 45.06 s  ClockTime = 45 s

Time = 146300

Courant Number mean: 0.0246667 max: 0.0246668

Calculating p and Sb field

diagonal:  Solving for Sb, Initial residual = 0, Final residual = 0, No Iterations 0
DICPCG:  Solving for p, Initial residual = 1.05146e-08, Final residual = 8.8627e-09, No Iterations 2
ExecutionTime = 45.06 s  ClockTime = 45 s

Time = 146400

Courant Number mean: 0.0246667 max: 0.0246668

Calculating p and Sb field

diagonal:  Solving for Sb, Initial residual = 0, Final residual = 0, No Iterations 0
DICPCG:  Solving for p, Initial residual = 8.92463e-09, Final residual = 8.92463e-09, No Iterations 0
ExecutionTime = 45.07 s  ClockTime = 45 s

Time = 146500

Courant Number mean: 0.0246667 max: 0.0246668

Calculating p and Sb field

diagonal:  Solving for Sb, Initial residual = 0, Final residual = 0, No Iterations 0
DICPCG:  Solving for p, Initial residual = 9.54468e-09, Final residual = 9.54468e-09, No Iterations 0
ExecutionTime = 45.13 s  ClockTime = 45 s

Time = 146600

Courant Number mean: 0.0246667 max: 0.0246668

Calculating p and Sb field

diagonal:  Solving for Sb, Initial residual = 0, Final residual = 0, No Iterations 0
DICPCG:  Solving for p, Initial residual = 1.04519e-08, Final residual = 9.28013e-09, No Iterations 1
ExecutionTime = 45.14 s  ClockTime = 45 s

Time = 146700

Courant Number mean: 0.0246667 max: 0.0246668

Calculating p and Sb field

diagonal:  Solving for Sb, Initial residual = 0, Final residual = 0, No Iterations 0
DICPCG:  Solving for p, Initial residual = 1.25915e-08, Final residual = 8.82015e-09, No Iterations 3
ExecutionTime = 45.14 s  ClockTime = 45 s

Time = 146800

Courant Number mean: 0.0246667 max: 0.0246668

Calculating p and Sb field

diagonal:  Solving for Sb, Initial residual = 0, Final residual = 0, No Iterations 0
DICPCG:  Solving for p, Initial residual = 1.11208e-08, Final residual = 7.37587e-09, No Iterations 1
ExecutionTime = 45.15 s  ClockTime = 45 s

Time = 146900

Courant Number mean: 0.0246667 max: 0.0246668

Calculating p and Sb field

diagonal:  Solving for Sb, Initial residual = 0, Final residual = 0, No Iterations 0
DICPCG:  Solving for p, Initial residual = 1.01834e-08, Final residual = 5.28588e-09, No Iterations 1
ExecutionTime = 45.15 s  ClockTime = 45 s

Time = 147000

Courant Number mean: 0.0246667 max: 0.0246667

Calculating p and Sb field

diagonal:  Solving for Sb, Initial residual = 0, Final residual = 0, No Iterations 0
DICPCG:  Solving for p, Initial residual = 7.83368e-09, Final residual = 7.83368e-09, No Iterations 0
ExecutionTime = 45.23 s  ClockTime = 45 s

Time = 147100

Courant Number mean: 0.0246667 max: 0.0246667

Calculating p and Sb field

diagonal:  Solving for Sb, Initial residual = 0, Final residual = 0, No Iterations 0
DICPCG:  Solving for p, Initial residual = 9.91228e-09, Final residual = 9.91228e-09, No Iterations 0
ExecutionTime = 45.23 s  ClockTime = 45 s

Time = 147200

Courant Number mean: 0.0246667 max: 0.0246667

Calculating p and Sb field

diagonal:  Solving for Sb, Initial residual = 0, Final residual = 0, No Iterations 0
DICPCG:  Solving for p, Initial residual = 1.15614e-08, Final residual = 5.92462e-09, No Iterations 1
ExecutionTime = 45.23 s  ClockTime = 45 s

Time = 147300

Courant Number mean: 0.0246667 max: 0.0246668

Calculating p and Sb field

diagonal:  Solving for Sb, Initial residual = 0, Final residual = 0, No Iterations 0
DICPCG:  Solving for p, Initial residual = 1.10457e-08, Final residual = 6.35189e-09, No Iterations 1
ExecutionTime = 45.24 s  ClockTime = 45 s

Time = 147400

Courant Number mean: 0.0246667 max: 0.0246668

Calculating p and Sb field

diagonal:  Solving for Sb, Initial residual = 0, Final residual = 0, No Iterations 0
DICPCG:  Solving for p, Initial residual = 9.05963e-09, Final residual = 9.05963e-09, No Iterations 0
ExecutionTime = 45.24 s  ClockTime = 45 s

Time = 147500

Courant Number mean: 0.0246667 max: 0.0246668

Calculating p and Sb field

diagonal:  Solving for Sb, Initial residual = 0, Final residual = 0, No Iterations 0
DICPCG:  Solving for p, Initial residual = 1.11549e-08, Final residual = 8.07218e-09, No Iterations 1
ExecutionTime = 45.31 s  ClockTime = 45 s

Time = 147600

Courant Number mean: 0.0246667 max: 0.0246668

Calculating p and Sb field

diagonal:  Solving for Sb, Initial residual = 0, Final residual = 0, No Iterations 0
DICPCG:  Solving for p, Initial residual = 1.32505e-08, Final residual = 7.3387e-09, No Iterations 1
ExecutionTime = 45.31 s  ClockTime = 45 s

Time = 147700

Courant Number mean: 0.0246667 max: 0.0246668

Calculating p and Sb field

diagonal:  Solving for Sb, Initial residual = 0, Final residual = 0, No Iterations 0
DICPCG:  Solving for p, Initial residual = 1.10296e-08, Final residual = 8.44473e-09, No Iterations 1
ExecutionTime = 45.31 s  ClockTime = 45 s

Time = 147800

Courant Number mean: 0.0246667 max: 0.0246668

Calculating p and Sb field

diagonal:  Solving for Sb, Initial residual = 0, Final residual = 0, No Iterations 0
DICPCG:  Solving for p, Initial residual = 1.24291e-08, Final residual = 7.8482e-09, No Iterations 1
ExecutionTime = 45.31 s  ClockTime = 45 s

Time = 147900

Courant Number mean: 0.0246667 max: 0.0246668

Calculating p and Sb field

diagonal:  Solving for Sb, Initial residual = 0, Final residual = 0, No Iterations 0
DICPCG:  Solving for p, Initial residual = 1.19696e-08, Final residual = 8.22317e-09, No Iterations 1
ExecutionTime = 45.32 s  ClockTime = 45 s

Time = 148000

Courant Number mean: 0.0246667 max: 0.0246668

Calculating p and Sb field

diagonal:  Solving for Sb, Initial residual = 0, Final residual = 0, No Iterations 0
DICPCG:  Solving for p, Initial residual = 1.20905e-08, Final residual = 8.28968e-09, No Iterations 1
ExecutionTime = 45.38 s  ClockTime = 45 s

Time = 148100

Courant Number mean: 0.0246667 max: 0.0246668

Calculating p and Sb field

diagonal:  Solving for Sb, Initial residual = 0, Final residual = 0, No Iterations 0
DICPCG:  Solving for p, Initial residual = 1.23329e-08, Final residual = 8.31888e-09, No Iterations 1
ExecutionTime = 45.38 s  ClockTime = 45 s

Time = 148200

Courant Number mean: 0.0246667 max: 0.0246668

Calculating p and Sb field

diagonal:  Solving for Sb, Initial residual = 0, Final residual = 0, No Iterations 0
DICPCG:  Solving for p, Initial residual = 1.22992e-08, Final residual = 8.4797e-09, No Iterations 1
ExecutionTime = 45.39 s  ClockTime = 45 s

Time = 148300

Courant Number mean: 0.0246667 max: 0.0246668

Calculating p and Sb field

diagonal:  Solving for Sb, Initial residual = 0, Final residual = 0, No Iterations 0
DICPCG:  Solving for p, Initial residual = 1.24848e-08, Final residual = 8.54069e-09, No Iterations 1
ExecutionTime = 45.39 s  ClockTime = 45 s

Time = 148400

Courant Number mean: 0.0246667 max: 0.0246668

Calculating p and Sb field

diagonal:  Solving for Sb, Initial residual = 0, Final residual = 0, No Iterations 0
DICPCG:  Solving for p, Initial residual = 1.25713e-08, Final residual = 8.65365e-09, No Iterations 1
ExecutionTime = 45.39 s  ClockTime = 45 s

Time = 148500

Courant Number mean: 0.0246667 max: 0.0246668

Calculating p and Sb field

diagonal:  Solving for Sb, Initial residual = 0, Final residual = 0, No Iterations 0
DICPCG:  Solving for p, Initial residual = 1.26969e-08, Final residual = 8.76587e-09, No Iterations 1
ExecutionTime = 45.46 s  ClockTime = 46 s

Time = 148600

Courant Number mean: 0.0246667 max: 0.0246668

Calculating p and Sb field

diagonal:  Solving for Sb, Initial residual = 0, Final residual = 0, No Iterations 0
DICPCG:  Solving for p, Initial residual = 1.28516e-08, Final residual = 8.87504e-09, No Iterations 1
ExecutionTime = 45.47 s  ClockTime = 46 s

Time = 148700

Courant Number mean: 0.0246667 max: 0.0246668

Calculating p and Sb field

diagonal:  Solving for Sb, Initial residual = 0, Final residual = 0, No Iterations 0
DICPCG:  Solving for p, Initial residual = 1.29781e-08, Final residual = 8.99428e-09, No Iterations 1
ExecutionTime = 45.47 s  ClockTime = 46 s

Time = 148800

Courant Number mean: 0.0246667 max: 0.0246668

Calculating p and Sb field

diagonal:  Solving for Sb, Initial residual = 0, Final residual = 0, No Iterations 0
DICPCG:  Solving for p, Initial residual = 1.31428e-08, Final residual = 9.10369e-09, No Iterations 1
ExecutionTime = 45.47 s  ClockTime = 46 s

Time = 148900

Courant Number mean: 0.0246667 max: 0.0246668

Calculating p and Sb field

diagonal:  Solving for Sb, Initial residual = 0, Final residual = 0, No Iterations 0
DICPCG:  Solving for p, Initial residual = 1.3297e-08, Final residual = 9.21396e-09, No Iterations 1
ExecutionTime = 45.48 s  ClockTime = 46 s

Time = 149000

Courant Number mean: 0.0246667 max: 0.0246668

Calculating p and Sb field

diagonal:  Solving for Sb, Initial residual = 0, Final residual = 0, No Iterations 0
DICPCG:  Solving for p, Initial residual = 1.34497e-08, Final residual = 9.30958e-09, No Iterations 1
ExecutionTime = 45.55 s  ClockTime = 46 s

Time = 149100

Courant Number mean: 0.0246667 max: 0.0246668

Calculating p and Sb field

diagonal:  Solving for Sb, Initial residual = 0, Final residual = 0, No Iterations 0
DICPCG:  Solving for p, Initial residual = 1.35971e-08, Final residual = 9.40055e-09, No Iterations 1
ExecutionTime = 45.56 s  ClockTime = 46 s

Time = 149200

Courant Number mean: 0.0246667 max: 0.0246668

Calculating p and Sb field

diagonal:  Solving for Sb, Initial residual = 0, Final residual = 0, No Iterations 0
DICPCG:  Solving for p, Initial residual = 1.37351e-08, Final residual = 9.48028e-09, No Iterations 1
ExecutionTime = 45.56 s  ClockTime = 46 s

Time = 149300

Courant Number mean: 0.0246667 max: 0.0246668

Calculating p and Sb field

diagonal:  Solving for Sb, Initial residual = 0, Final residual = 0, No Iterations 0
DICPCG:  Solving for p, Initial residual = 1.38605e-08, Final residual = 9.5445e-09, No Iterations 1
ExecutionTime = 45.56 s  ClockTime = 46 s

Time = 149400

Courant Number mean: 0.0246667 max: 0.0246668

Calculating p and Sb field

diagonal:  Solving for Sb, Initial residual = 0, Final residual = 0, No Iterations 0
DICPCG:  Solving for p, Initial residual = 1.39703e-08, Final residual = 9.60147e-09, No Iterations 1
ExecutionTime = 45.57 s  ClockTime = 46 s

Time = 149500

Courant Number mean: 0.0246667 max: 0.0246668

Calculating p and Sb field

diagonal:  Solving for Sb, Initial residual = 0, Final residual = 0, No Iterations 0
DICPCG:  Solving for p, Initial residual = 1.40564e-08, Final residual = 9.64394e-09, No Iterations 1
ExecutionTime = 45.63 s  ClockTime = 46 s

Time = 149600

Courant Number mean: 0.0246667 max: 0.0246668

Calculating p and Sb field

diagonal:  Solving for Sb, Initial residual = 0, Final residual = 0, No Iterations 0
DICPCG:  Solving for p, Initial residual = 1.41385e-08, Final residual = 9.66874e-09, No Iterations 1
ExecutionTime = 45.64 s  ClockTime = 46 s

Time = 149700

Courant Number mean: 0.0246667 max: 0.0246668

Calculating p and Sb field

diagonal:  Solving for Sb, Initial residual = 0, Final residual = 0, No Iterations 0
DICPCG:  Solving for p, Initial residual = 1.41853e-08, Final residual = 9.68929e-09, No Iterations 1
ExecutionTime = 45.64 s  ClockTime = 46 s

Time = 149800

Courant Number mean: 0.0246667 max: 0.0246668

Calculating p and Sb field

diagonal:  Solving for Sb, Initial residual = 0, Final residual = 0, No Iterations 0
DICPCG:  Solving for p, Initial residual = 1.42218e-08, Final residual = 9.69346e-09, No Iterations 1
ExecutionTime = 45.64 s  ClockTime = 46 s

Time = 149900

Courant Number mean: 0.0246667 max: 0.0246668

Calculating p and Sb field

diagonal:  Solving for Sb, Initial residual = 0, Final residual = 0, No Iterations 0
DICPCG:  Solving for p, Initial residual = 1.42447e-08, Final residual = 9.68755e-09, No Iterations 1
ExecutionTime = 45.65 s  ClockTime = 46 s

Time = 150000

Courant Number mean: 0.0246667 max: 0.0246668

Calculating p and Sb field

diagonal:  Solving for Sb, Initial residual = 0, Final residual = 0, No Iterations 0
DICPCG:  Solving for p, Initial residual = 1.42438e-08, Final residual = 9.67468e-09, No Iterations 1
ExecutionTime = 45.71 s  ClockTime = 46 s

End

