/*--------------------------------*- C++ -*----------------------------------*\
  =========                 |
  \\      /  F ield         | OpenFOAM: The Open Source CFD Toolbox
   \\    /   O peration     | Website:  https://openfoam.org
    \\  /    A nd           | Version:  9
     \\/     M anipulation  |
\*---------------------------------------------------------------------------*/
FoamFile
{
    format      ascii;
    class       dictionary;
    location    "constant";
    object      transportProperties;
}
// * * * * * * * * * * * * * * * * * * * * * * * * * * * * * * * * * * * * * //

// a: oil
// b: water

mu_a              mu_a [0 0 0 0 0 0 0] 0.3;    // Pa.s

mu_b              mu_b [0 0 0 0 0 0 0] 0.5;    // Pa.s

mu_c              mu_c [0 0 0 0 0 0 0] 1.0;    // Pa.s

rho_a              rho_a [0 0 0 0 0 0 0] 5.76e-2;       // kg/m3

rho_b              rho_b [0 0 0 0 0 0 0] 1.0;           // kg/m3

rho_c              rho_c [0 0 0 0 0 0 0] 0.7;           // kg/m3

prst            prst [0 0 0 0 0 0 0] 1.0;           // []

// Gravity
g_vector        g_vector [0 0 0 0 0 0 0] (-9.81 0 0);
// g_vector        g_vector [0 0 0 0 0 0 0] (0 0 0);

// Relative permeability model

relativePermeabilityModel CoreyBrooks;

CoreyBrooks
{
  Sa_min    0.0;
  Sb_min    0.0;
  Sc_min    0.0;
  a_exp     2.0;
  b_exp     2.0;
  c_exp     2.0;
  kra_max   1.0;
  krb_max   1.0;
  krc_max   1.0;
}

// Foam model 

foamModel noFoam;

noFoam{}

// ************************************************************************* //
