/*--------------------------------*- C++ -*----------------------------------*\
  =========                 |
  \\      /  F ield         | OpenFOAM: The Open Source CFD Toolbox
   \\    /   O peration     | Website:  https://openfoam.org
    \\  /    A nd           | Version:  9
     \\/     M anipulation  |
\*---------------------------------------------------------------------------*/
FoamFile
{
    format      ascii;
    class       dictionary;
    location    "constant";
    object      transportProperties;
}
// * * * * * * * * * * * * * * * * * * * * * * * * * * * * * * * * * * * * * //

// Fluid and rock properties
// a: gas
// b: water

mu_a              mu_a [0 0 0 0 0 0 0] 2.112e-5;      // Pa.s

mu_b              mu_b [0 0 0 0 0 0 0] 5.0e-4;        // Pa.s

rho_a              rho_a [0 0 0 0 0 0 0] 1000.0;      // kg/m3

rho_b              rho_b [0 0 0 0 0 0 0] 1000.0;      // kg/m3

prst            prst [0 0 0 0 0 0 0] 0.25;            // []

// Gravity
g_vector        g_vector [0 0 0 0 0 0 0] (0 0 0);

// Relative permeability model

relativePermeabilityModel CoreyBrooksExtd;

CoreyBrooks
{
  Sa_min    0.293;
  Sb_min    0.4;
  a_exp     0.96;
  b_exp     2.98;
  kra_max   0.04;
  krb_max   0.302;
}

CoreyBrooksExtd
{
  Sa_min    0.293;
  Sb_min    0.4;
  a_exp     0.96;
  b_exp     2.98;
  kra_max   0.04;
  krb_max   0.302;
}

// Foam model 

foamModel STARS;
FsurfActive false;

STARS
{
  fmmob     269.342055;
  SF        0.43766393;
  sfbet     787.457944;
  fmcap     1.0;
  epcap     0.0;
  sigma_ba  1.0; 
  fmsurf    1.0;
  epsurf    0.0;
}

noFoam
{
}

// Capillary pressure model

capillaryPressureModel noCapillaryPressure;

noCapillaryPressure
{
}

// Surfactante concentration transport

surfactantTransportModel noSurfTransp;

noSurfTransp
{
  isothermModel noAdsorption;

  // Adorption isotherms
  noAdsorption
  {
  }
}

// ************************************************************************* //
