/*--------------------------------*- C++ -*----------------------------------*\
  =========                 |
  \\      /  F ield         | OpenFOAM: The Open Source CFD Toolbox
   \\    /   O peration     | Website:  https://openfoam.org
    \\  /    A nd           | Version:  9
     \\/     M anipulation  |
\*---------------------------------------------------------------------------*/
FoamFile
{
    format      ascii;
    class       dictionary;
    location    "constant";
    object      transportProperties;
}
// * * * * * * * * * * * * * * * * * * * * * * * * * * * * * * * * * * * * * //

// a: gas
// b: water

mu_a              mu_a [0 0 0 0 0 0 0] 5e-5;    // Pa.s

mu_b              mu_b [0 0 0 0 0 0 0] 1e-3;    // Pa.s

rho_a              rho_a [0 0 0 0 0 0 0] 1.0;       // kg/m3

rho_b              rho_b [0 0 0 0 0 0 0] 1.0e3;     // kg/m3

prst            prst [0 0 0 0 0 0 0] 0.21;          // []

// Gravity
g_vector        g_vector [0 0 0 0 0 0 0] (0 0 0);

// Relative permeability model

relativePermeabilityModel CoreyBrooks;

CoreyBrooks
{
  Sa_min    0.293;
  Sb_min    0.437;
  a_exp     2.0;
  b_exp     2.0;
  kra_max   0.004;
  krb_max   0.302;
}

// Foam model 

foamModel STARS;
FsurfActive true;

STARS
{
  fmmob     293.27;
  SF        0.437;
  sfbet     359.33;
  fmcap     1.0;
  epcap     0.0;
  sigma_ba  1.0;
  fmsurf    2.0;
  epsurf    1.0;
}

noFoam
{}

// Capillary pressure model

capillaryPressureModel noCapillaryPressure;

noCapillaryPressure
{

}

// Surfactante concentration transport

surfactantTransportModel Csw;
surfTranspActive true;

Csw
{
  Kd    0.05;
  rho_s 2.0e3;
}

// ************************************************************************* //
